  11
        -13.80399248
 C         -2.7143356553       -0.9082051114       -0.1687330026
 C         -2.3125363668        0.4467537296        0.3968755267
 C         -1.1190995087        1.0525254419       -0.3133811708
 I          0.7077832129       -0.0629874947        0.0122367425
 H         -1.9110200445       -1.6310801156       -0.0423160552
 H         -3.5950971281       -1.2858544416        0.3445679107
 H         -2.9421793880       -0.8284362070       -1.2301279131
 H         -2.1020241952        0.3532929322        1.4647415602
 H         -3.1457012911        1.1481033252        0.2843372579
 H         -0.9130175467        2.0582747721        0.0442909955
 H         -1.2671492017        1.0726984301       -1.3904429667
