  11
        -13.80399248
 C         -2.7143356553       -0.9082051114       -0.1687330026
 C         -2.3125363668        0.4467537296        0.3968755267
 C         -1.1190995087        1.0525254419       -0.3133811708
 I          0.7077832129       -0.0629874947        0.0122367425
 H         -1.9110200445       -1.6310801156       -0.0423160552
 H         -3.5950971281       -1.2858544416        0.3445679107
 H         -2.9421793880       -0.8284362070       -1.2301279131
 H         -2.1020241952        0.3532929322        1.4647415602
 H         -3.1457012911        1.1481033252        0.2843372579
 H         -0.9130175467        2.0582747721        0.0442909955
 H         -1.2671492017        1.0726984301       -1.3904429667
  11
        -13.80398799
 C         -3.5883497286       -0.5977289118       -0.2274532126
 C         -2.1491330112       -0.6696086050        0.2720189504
 C         -1.2493803051        0.1861532178       -0.5959956347
 I          0.8085753634        0.1237688756        0.0655872277
 H         -4.2323209165       -1.2124351864        0.3961350600
 H         -3.9554301996        0.4260873460       -0.1962792187
 H         -3.6582135928       -0.9565647985       -1.2522620914
 H         -1.8063349579       -1.7065726968        0.2514622369
 H         -2.1035595584       -0.3233174991        1.3070056706
 H         -1.5446200538        1.2322953937       -0.5656879067
 H         -1.2456465024       -0.1588899713       -1.6271381569
  11
        -13.79984657
 C         -2.7018050955       -0.9140581120       -0.1655625649
 C         -2.3073973795        0.4583038052        0.3943567938
 C         -1.1117733798        1.0692101990       -0.3083371049
 I          0.7047775742       -0.0654165464        0.0115963087
 H         -2.6875559355       -1.6736411176        0.6112581406
 H         -3.7001005475       -0.8910043614       -0.5947248249
 H         -2.0132082908       -1.2290212213       -0.9462617658
 H         -2.0983413925        0.3848724736        1.4633038433
 H         -3.1371677833        1.1616008589        0.2773983620
 H         -0.9023238556        2.0697665257        0.0622899813
 H         -1.2569214790        1.1035458975       -1.3854517316
  11
        -13.79899245
 C         -3.2933409113       -0.8842305235       -0.2880029110
 C         -2.3009131999        0.0094239946        0.4479280516
 C         -1.2408251956        0.5664635520       -0.5011370478
 I          0.7893630749        0.0388731087        0.0425075836
 H         -3.7945015282       -0.3327816036       -1.0811296409
 H         -2.7848558919       -1.7396142717       -0.7280822910
 H         -4.0484027109       -1.2538060445        0.4015804278
 H         -1.8437551244       -0.5661586368        1.2535734703
 H         -2.8380300435        0.8394583307        0.9127938860
 H         -1.2533386941        1.6521482097       -0.5360218433
 H         -1.3730112144        0.1807273055       -1.5086624401
