  11
  -13.8039924800000       0.111071233539227      !md7
 C         -2.7143356553       -0.9082051114       -0.1687330026
 C         -2.3125363668        0.4467537296        0.3968755267
 C         -1.1190995087        1.0525254419       -0.3133811708
 I          0.7077832129       -0.0629874947        0.0122367425
 H         -1.9110200445       -1.6310801156       -0.0423160552
 H         -3.5950971281       -1.2858544416        0.3445679107
 H         -2.9421793880       -0.8284362070       -1.2301279131
 H         -2.1020241952        0.3532929322        1.4647415602
 H         -3.1457012911        1.1481033252        0.2843372579
 H         -0.9130175467        2.0582747721        0.0442909955
 H         -1.2671492017        1.0726984301       -1.3904429667
  11
  -13.8039924800000       0.111071233539227      !mtd10
 C         -2.6992711805       -0.9187044625        0.3036288305
 C         -2.3327164051        0.4604144868       -0.2263847716
 C         -1.0949944794        1.0359022791        0.4313158426
 I          0.7054483108       -0.0613363428       -0.0607559855
 H         -3.6118352625       -1.2746080007       -0.1679956452
 H         -1.9067917778       -1.6341442527        0.0939654937
 H         -2.8580993442       -0.8861037472        1.3799855934
 H         -3.1558296497        1.1549651926       -0.0294365346
 H         -2.1917607380        0.4144541107       -1.3086960754
 H         -1.1731043519        1.0081487396        1.5155160965
 H         -0.9110753345        2.0568122506        0.1060002809
  11
  -13.8039924800000       0.111071233539227      !gc
 C         -2.7143847567       -0.9082479479       -0.1686847468
 C         -2.3125550777        0.4467392752        0.3968219686
 C         -1.1190567613        1.0525298650       -0.3133106732
 I          0.7077866159       -0.0629821736        0.0122292422
 H         -2.9416673974       -0.8286269529       -1.2302080291
 H         -1.9112341669       -1.6312049655       -0.0417420557
 H         -3.5954723433       -1.2856721984        0.3442470690
 H         -2.1021613088        0.3533548393        1.4647162212
 H         -3.1457233916        1.1480575561        0.2841475358
 H         -0.9129644448        2.0582515679        0.0444197058
 H         -1.2670955223        1.0727988940       -1.3903622107
  11
  -13.8039924800000       0.111071233539227      !mtd6
 C         -2.6993205709       -0.9187223278        0.3036170129
 C         -2.3327326180        0.4604074278       -0.2263728976
 C         -1.0950029641        1.0359199099        0.4312929762
 I          0.7054569305       -0.0613355624       -0.0607539188
 H         -1.9069977568       -1.6342373091        0.0935952788
 H         -2.8577415715       -0.8862456945        1.3800468522
 H         -3.6121080323       -1.2744553775       -0.1676937592
 H         -3.1558539380        1.1549394612       -0.0293833742
 H         -2.1917881199        0.4145138829       -1.3086911528
 H         -1.1731303648        1.0081609870        1.5154931144
 H         -0.9110790793        2.0568370058        0.1059838562
  11
  -13.8039924800000       0.111071233539227      !mtd1
 C         -2.7145615828       -0.9082784930       -0.1687352397
 C         -2.3124877222        0.4466151058        0.3968421334
 C         -1.1190653262        1.0524424632       -0.3133938124
 I          0.7078016036       -0.0629552633        0.0122429580
 H         -3.5953559634       -1.2858733792        0.3445434431
 H         -2.9424122931       -0.8283314735       -1.2300746283
 H         -1.9112978978       -1.6311848042       -0.0424688597
 H         -2.1020064227        0.3530523697        1.4646983147
 H         -3.1456166556        1.1480093717        0.2843591051
 H         -0.9129438213        2.0581973383        0.0442386137
 H         -1.2671660068        1.0725863019       -1.3904525373
  11
  -13.8039924700000       0.111070058195494      !mtd3
 C         -2.6993440809       -0.9187054662        0.3036594796
 C         -2.3326784038        0.4603564669       -0.2264555261
 C         -1.0950128280        1.0357821758        0.4313867604
 I          0.7054551261       -0.0613161232       -0.0607611074
 H         -2.8580181391       -0.8860633249        1.3800300107
 H         -3.6120881950       -1.2744379930       -0.1677715395
 H         -1.9069969138       -1.6342577771        0.0939259123
 H         -3.1557798659        1.1549607536       -0.0296263448
 H         -2.1916129850        0.4143419424       -1.3087573616
 H         -1.1731390022        1.0078334126        1.5155855462
 H         -0.9110849181        2.0567360655        0.1062306976
  11
  -13.8039879900000       0.110544753082973      !md3
 C         -3.5883497286       -0.5977289118       -0.2274532126
 C         -2.1491330112       -0.6696086050        0.2720189504
 C         -1.2493803051        0.1861532178       -0.5959956347
 I          0.8085753634        0.1237688756        0.0655872277
 H         -4.2323209165       -1.2124351864        0.3961350600
 H         -3.9554301996        0.4260873460       -0.1962792187
 H         -3.6582135928       -0.9565647985       -1.2522620914
 H         -1.8063349579       -1.7065726968        0.2514622369
 H         -2.1035595584       -0.3233174991        1.3070056706
 H         -1.5446200538        1.2322953937       -0.5656879067
 H         -1.2456465024       -0.1588899713       -1.6271381569
  11
  -13.8039879900000       0.110544753082973      !mtd4
 C         -3.5883084882       -0.5978190689       -0.2275587193
 C         -2.1491627951       -0.6694390033        0.2721832163
 C         -1.2493801054        0.1860476966       -0.5960450637
 I          0.8085764122        0.1237749525        0.0655905617
 H         -3.9556623596        0.4258878034       -0.1964240060
 H         -3.6577517299       -0.9565527271       -1.2524452809
 H         -4.2323168550       -1.2127388044        0.3957479867
 H         -1.8063197311       -1.7063809916        0.2520969286
 H         -2.1038043917       -0.3227732171        1.3070535515
 H         -1.5449011014        1.2321182248       -0.5661984710
 H         -1.2456405709       -0.1594120953       -1.6271260845
  11
  -13.8039879800000       0.110543583310399      !mtd3
 C         -3.5884626711       -0.5977656718       -0.2275450698
 C         -2.1493571541       -0.6696160905        0.2722215285
 C         -1.2493524809        0.1856432860       -0.5960018134
 I          0.8086111576        0.1238323628        0.0655809012
 H         -3.6582440810       -0.9580656718       -1.2518690606
 H         -4.2328322011       -1.2113465532        0.3967332229
 H         -3.9551638479        0.4262387566       -0.1979933572
 H         -1.8067276088       -1.7066348252        0.2521879656
 H         -2.1038884332       -0.3229131959        1.3070810952
 H         -1.5446342728        1.2317815484       -0.5662658034
 H         -1.2454567564       -0.1598470935       -1.6270877204
  11
  -13.7998465700000       1.381253145853971E-003 !mtd5
 C         -2.7018050955       -0.9140581120       -0.1655625649
 C         -2.3073973795        0.4583038052        0.3943567938
 C         -1.1117733798        1.0692101990       -0.3083371049
 I          0.7047775742       -0.0654165464        0.0115963087
 H         -2.6875559355       -1.6736411176        0.6112581406
 H         -3.7001005475       -0.8910043614       -0.5947248249
 H         -2.0132082908       -1.2290212213       -0.9462617658
 H         -2.0983413925        0.3848724736        1.4633038433
 H         -3.1371677833        1.1616008589        0.2773983620
 H         -0.9023238556        2.0697665257        0.0622899813
 H         -1.2569214790        1.1035458975       -1.3854517316
  11
  -13.7989924500000       5.594314861719245E-004 !mtd10
 C         -3.2933409113       -0.8842305235       -0.2880029110
 C         -2.3009131999        0.0094239946        0.4479280516
 C         -1.2408251956        0.5664635520       -0.5011370478
 I          0.7893630749        0.0388731087        0.0425075836
 H         -3.7945015282       -0.3327816036       -1.0811296409
 H         -2.7848558919       -1.7396142717       -0.7280822910
 H         -4.0484027109       -1.2538060445        0.4015804278
 H         -1.8437551244       -0.5661586368        1.2535734703
 H         -2.8380300435        0.8394583307        0.9127938860
 H         -1.2533386941        1.6521482097       -0.5360218433
 H         -1.3730112144        0.1807273055       -1.5086624401
