! pbe def2-sv(p) def2/J RI DEFGRID1 loosescf d4 GCP(DFT/SV(P)) printgap
%output
    printlevel normal
end
* xyz 0 1
C -1.9511131179 -0.2410185085 -0.5522756778
O -1.0694566351 -0.2279395561 0.5525534674
C -0.0535831196 0.7494685799 0.4898171859
C 1.0902700376 0.425540794 -0.4767970357
O 1.8658349794 -0.6228608419 0.0638746625
H -2.3802629447 0.753601906 -0.7161743146
H -2.7387271907 -0.9443840838 -0.2935393441
H -1.4547176534 -0.5751520553 -1.4679103074
H -0.4853264743 1.7226447562 0.2178810993
H 0.353792083 0.7962332927 1.5019141479
H 1.6991874013 1.3312912223 -0.5951149693
H 0.6841648817 0.140824425 -1.4550590718
H 2.5770968504 -0.8495404083 -0.5509521496
*
