  14
  -23.3702240600000       0.500023809384006      !md1
 C         -2.4114859811       -0.0700579545       -0.0053485041
 C         -1.8392165855       -1.3310910499        0.0064581207
 C         -0.4599780295       -1.4553567390        0.0088014108
 C          0.3300268143       -0.3236275275        0.0016495869
 C         -0.2238400413        0.9616529174       -0.0076581240
 C         -1.6173517209        1.0588945471       -0.0140031997
 N          0.5683683512        2.0787769575        0.0540819468
 Cl         2.0626268437       -0.4947400936       -0.0059770027
 H         -3.4859184173        0.0355466015       -0.0105807574
 H         -2.4578099587       -2.2144623201        0.0116592624
 H          0.0046714255       -2.4292241967        0.0134467722
 H         -2.0659057141        2.0416175802       -0.0231516372
 H          1.5405142729        1.9491165942       -0.1774352829
 H          0.1575849659        2.9499788606       -0.2349000684
  14
  -23.3702239700000       0.499976190615994      !mtd6
 C         -2.4113949291       -0.0699960135       -0.0104834781
 C         -1.8390992918       -1.3309146729       -0.0343107753
 C         -0.4598768748       -1.4551306783       -0.0295723462
 C          0.3300067612       -0.3235367485       -0.0034338329
 C         -0.2238511863        0.9615452570        0.0180030463
 C         -1.6174091745        1.0587247562        0.0168001670
 N          0.5685234787        2.0793216696       -0.0252578707
 Cl         2.0625537476       -0.4949240033        0.0130182816
 H         -3.4858584168        0.0355269599       -0.0113885322
 H         -2.4578424576       -2.2139324726       -0.0547144921
 H          0.0050309831       -2.4287998664       -0.0435330018
 H         -2.0661499710        2.0412630795        0.0347083645
 H          0.1561111771        2.9470767179        0.2715768396
 H          1.5396288070        1.9470285420        0.2088294201
