! pbe def2-sv(p) def2/J RI DEFGRID1 loosescf d4 GCP(DFT/SV(P)) printgap
%output
    printlevel normal
end
* xyz 0 1
C 3.447898271 -0.0996133237 -0.9761343329
C 2.5437807566 0.0800030306 0.2071497384
C 3.0143146832 0.1141508137 1.4433016991
C 1.0789299933 0.184560458 -0.1499719905
H 1.0051223332 0.7793540914 -1.0669813901
C 0.5028079932 -1.2204873752 -0.438606147
C -0.933865207 -1.4107096882 0.0820095628
C -1.7315964738 -0.1481712167 -0.032433975
C -1.1583958596 0.9862818599 0.4113513864
C 0.2337751944 0.9171380939 0.9117594404
C -3.0679101123 -0.1627451474 -0.5882519443
O -3.8081421308 0.8008345364 -0.6906688677
H 4.4786069791 -0.2374262724 -0.6623426889
H 3.1390603731 -0.9643095396 -1.5606617203
H 3.394346172 0.7745111382 -1.6237985214
H 2.3890950065 0.244549923 2.3080212799
H 4.0681413335 0.0133082183 1.640921575
H 0.5130107698 -1.3931831578 -1.5149054392
H 1.1379770814 -1.976787473 0.0250253995
H -1.4165257962 -2.2279440586 -0.4538248736
H -0.8882004546 -1.6859833194 1.1390247864
H -1.6854472438 1.9268448719 0.3588942096
H 0.6473523027 1.9043951314 1.1083071059
H 0.2503495833 0.3358738368 1.8367029541
H -3.4125975303 -1.1536921515 -0.9404404951
*
