! r2scan-3c def2/J RI DEFGRID2 scfconv6 printgap
%output
    printlevel normal
end
* xyz 0 1
C 0.9757163403 -1.2298968976 0.6801298676
C 1.0765413134 0.2698805543 0.4170557938
C 1.8264697254 0.5388283473 -0.8870503831
C -0.2992152235 0.9526002297 0.4398239373
C -1.3357429493 0.4034577595 -0.5412350409
O -1.940766587 -0.7565504937 0.0005576613
H 1.9683914402 -1.6670781554 0.7615048707
H 0.4441133078 -1.7265050656 -0.1266146778
H 0.4336957712 -1.4184740856 1.6033733519
H 1.6561080888 0.7193542616 1.2326469031
H 1.885685457 1.60700508 -1.0824115742
H 1.3325601495 0.0598184925 -1.7286274472
H 2.8375755503 0.144166658 -0.8226470863
H -0.1616518153 2.0146671046 0.2293241137
H -0.7251350159 0.8569804743 1.440668101
H -2.1024564821 1.1733185141 -0.70642418
H -0.8686729673 0.1733725545 -1.5066270755
H -2.6311699325 -1.0678586151 -0.5986680351
*
