! r2scan-3c def2/J RI DEFGRID2 scfconv6 printgap
%output
    printlevel normal
end
* xyz 0 1
C -2.6556647528 0.4117056312 0.5792920077
C -1.7066817328 0.4565401231 -0.6222807762
C -0.4179324801 -0.232639048 -0.2559776527
O -0.1994930995 -1.4172304161 -0.4046501833
O 0.4425795225 0.6112554263 0.298157181
C 1.7111103431 0.1044651822 0.7451172972
C 2.728822258 0.0997044674 -0.3851877942
H -2.2184743044 0.9366415853 1.4248075267
H -3.597816413 0.8849123646 0.3200912553
H -2.8480985095 -0.618950824 0.8680607771
H -1.4914876526 1.4902091899 -0.8880111838
H -2.151731353 -0.0675161049 -1.4672404823
H 2.0106246962 0.7811076822 1.5460193038
H 1.5648215443 -0.9073045126 1.1354312711
H 2.4137150775 -0.5880068327 -1.1668289439
H 2.8239357939 1.0964042741 -0.8073826404
H 3.6916172503 -0.2209481165 -0.0009657698
*
