  13
        -14.71165314
 C          2.1581692272        0.5733135300       -0.0491763699
 C          1.2312481332       -0.3414301847       -0.2580970167
 C         -0.0000418123       -0.5063413573        0.5809602233
 C         -1.2308940517       -0.3409723662       -0.2586370422
 C         -2.1584376925        0.5729108051       -0.0490551914
 H          3.0267679333        0.6610960687       -0.6795979902
 H          2.0900251375        1.2732976096        0.7675089253
 H          1.3200573079       -1.0311920128       -1.0877559388
 H         -0.0001461558        0.2166159537        1.3978370100
 H         -0.0004311640       -1.5159739263        1.0074183262
 H         -1.3186600328       -1.0296585916       -1.0894235893
 H         -3.0267802179        0.6611052003       -0.6798015712
 H         -2.0913548121        1.2714093621        0.7690522735
  13
        -14.71161301
 C          2.3190030437       -0.0334140799       -0.3011494391
 C          1.1612546098        0.4045645557        0.1550012070
 C         -0.0000105731       -0.4748678234        0.5123067153
 C         -1.1612377012       -0.1850840009       -0.3916727448
 C         -2.3190082487        0.3027401505        0.0105001947
 H          3.1238327235        0.6358176770       -0.5543399392
 H          2.5149753324       -1.0851722864       -0.4352491991
 H          0.9845382553        1.4654357360        0.2774813075
 H         -0.2910476967       -0.2917253532        1.5498795063
 H          0.2910714316       -1.5233075085        0.4081810078
 H         -0.9844768052       -0.3874049963       -1.4402235213
 H         -3.1239747981        0.5042233092       -0.6759060180
 H         -2.5149319150        0.5160267142        1.0490973411
  13
        -14.71082428
 C          2.0176631042        0.5000407246       -0.3680976075
 C          1.0177762088        0.1647906202        0.4244084678
 C          0.0568879654       -0.9481380864        0.1522629427
 C         -1.3646816025       -0.4902494636       -0.0082842064
 C         -1.7497545421        0.7609340907       -0.1720962887
 H          2.6914348028        1.3059915894       -0.1308254455
 H          2.2079597718       -0.0217329724       -1.2922568824
 H          0.8446072931        0.7046272578        1.3465948978
 H          0.0943387306       -1.6632536819        0.9817878069
 H          0.3542387139       -1.4857546053       -0.7538615011
 H         -2.0977367338       -1.2875547819        0.0014288140
 H         -2.7871860126        1.0235676796       -0.2911771006
 H         -1.0441883740        1.5745254458       -0.1976662043
  13
        -14.70884786
 C          1.9339440697        0.4684067319       -0.5029794754
 C          1.3024422644       -0.1370894480        0.4850628476
 C         -0.0454063050       -0.8037263643        0.3886113862
 C         -1.0309005738       -0.0244800921       -0.4271124774
 C         -2.1439130579        0.4919514248        0.0570611017
 H          2.9025847208        0.9169617803       -0.3610313057
 H          1.5199094214        0.5481363628       -1.4937397121
 H          1.7698812249       -0.1919407447        1.4598674927
 H         -0.4450959701       -0.9565772879        1.3927421000
 H          0.0911962031       -1.7900524440       -0.0703473980
 H         -0.7816487972        0.1048068397       -1.4711163171
 H         -2.8295083956        1.0511395551       -0.5568866653
 H         -2.4199710499        0.3763683723        1.0928447051
