  12
  -29.0087251800000        1.00000000000000      !md1
 C         -1.0998802768       -0.9071124482        0.0000059890
 O         -2.0240089445       -1.6691997496       -0.0001702377
 N         -1.2482589429        0.4663696914       -0.0002673343
 C         -0.2356732001        1.4060628949       -0.0000536008
 O         -0.4336005325        2.5874228048        0.0000384771
 N          1.0279975778        0.8478646813        0.0003166484
 C          1.3354986326       -0.4990164047        0.0000590929
 O          2.4576381904       -0.9181313375       -0.0004592143
 N          0.2202745620       -1.3142771817        0.0006046860
 H         -2.1972726034        0.8209880518       -0.0003717583
 H          1.8095815537        1.4923507139       -0.0002360223
 H          0.3877054268       -2.3134137672        0.0007635114
