  29
        -34.61366746
 C         -3.0421075494       -0.4086377105        0.0856620730
 C         -1.8619855937        0.5198720325        0.0786962065
 C         -1.0878905395        0.6584585383       -0.9928925071
 C          0.0705421672        1.5959146478       -1.1321399161
 C          1.4266824002        0.8631916164       -1.1648804956
 C          1.7649414927        0.2536448428        0.1674299451
 C          1.5680243699       -1.0181322936        0.4974760886
 C          0.9649440274       -2.1033239936       -0.3459350772
 O         -0.3159934585       -2.4807451268        0.1191747237
 C          2.3839104606        1.2118754355        1.1445808130
 C         -1.6472616719        1.2875991058        1.3547160135
 H         -3.9587802082        0.1663282252        0.2213327667
 H         -3.1204453671       -0.9640919872       -0.8459819861
 H         -2.9748782412       -1.1156936706        0.9125699172
 H         -1.2964599835        0.0637539093       -1.8740730582
 H         -0.0393954391        2.1420068779       -2.0736800570
 H          0.0720405234        2.3235384781       -0.3212484245
 H          1.3996474753        0.1050458911       -1.9475514104
 H          2.2017601508        1.5876395229       -1.4263223956
 H          1.8225677575       -1.3425288345        1.4986460191
 H          1.5760247606       -3.0081558868       -0.2725268304
 H          0.9073347665       -1.8096732757       -1.4018462614
 H         -0.8747520658       -1.6932801155        0.1026119879
 H          1.7980424337        2.1271296495        1.2134562559
 H          3.3837496024        1.4874730272        0.8079488757
 H          2.4648368432        0.7712083957        2.1348418107
 H         -2.3686849474        0.9821193050        2.1077906114
 H         -0.6468445268        1.1104143059        1.7452255665
 H         -1.7623989314        2.3583842412        1.1889210650
