! r2scan-3c def2/J RI DEFGRID2 scfconv6 printgap
%output
    printlevel normal
end
%cpcm
    smd true
    smdsolvent "water"
end
* xyz 0 1
C -2.1435171527 -0.5013723194 0.9408007434
C -2.0888429078 0.5795481401 -0.1324815742
C -0.8429668415 0.4606954847 -1.0058790035
O 0.3340793939 0.7576597883 -0.2405580007
C 1.2197900415 -0.2017207926 -0.004426698
O 1.1170104355 -1.3370191766 -0.4233640973
C 2.3598460736 0.2995340296 0.8316555106
H -1.2920547482 -0.4170396023 1.6132480162
H -3.0533934836 -0.4067268755 1.52658678
H -2.1208755563 -1.4904783701 0.4880669214
H -2.0939577333 1.5649812973 0.3351012105
H -2.9593072099 0.4997173846 -0.7835062632
H -0.7459812905 -0.5487231029 -1.4176280131
H -0.8665726765 1.1929624499 -1.8159600722
H 2.1989616029 1.3396673414 1.0926944203
H 3.2839091818 0.1874609592 0.2702909299
H 2.4386115563 -0.3123517333 1.7265273604
*
