  24
        -31.81657585
 C         -3.9791950866       -0.4753393063        0.0007888465
 C         -2.5281923058       -0.1014679203        0.0000627181
 C         -2.1685122731        1.2618305597       -0.0002350066
 C         -0.8588882650        1.6460403405       -0.0004206903
 C          0.1755056121        0.6868404889       -0.0003132096
 C          1.5379475910        1.0478970064       -0.0000476377
 C          2.5281933595        0.1014590431        0.0001343562
 C          2.1685214893       -1.2618374942       -0.0002043475
 C          0.8588961017       -1.6460466664       -0.0004211535
 C         -0.1755094315       -0.6868558750       -0.0003270193
 C         -1.5379527342       -1.0479147667       -0.0001018100
 C          3.9791842436        0.4753817602        0.0007399335
 H         -4.1043739315       -1.5551940959        0.0001473283
 H         -4.4746266677       -0.0674392949        0.8814827785
 H         -4.4759219779       -0.0661766667       -0.8785691308
 H         -2.9533738386        2.0053510193       -0.0002187796
 H         -0.5953325481        2.6945484798       -0.0006198612
 H          1.7913165568        2.0995034243        0.0000520246
 H          2.9533846726       -2.0053584775       -0.0002059308
 H          0.5953321177       -2.6945557127       -0.0006109008
 H         -1.7913300577       -2.0995194404        0.0000244155
 H          4.1043630611        1.5552487672        0.0023558867
 H          4.4752169889        0.0655639156        0.8801517973
 H          4.4753658715        0.0681809766       -0.8798780711
