! pbe def2-sv(p) def2/J RI DEFGRID1 loosescf d4 GCP(DFT/SV(P)) printgap
%output
    printlevel normal
end
* xyz 0 1
C 2.1198455501 -0.3159027497 -0.5799035823
C 1.3641728858 0.4930455366 0.4686796646
C -0.0504066988 -0.0270560342 0.7281925947
C -0.9960570725 0.1635390544 -0.4562563205
C -2.4165613089 -0.2725301938 -0.1159683016
H 3.1418991546 0.0447560663 -0.6689049893
H 1.6454800313 -0.2320883016 -1.5539853521
H 2.149680559 -1.3664675982 -0.2993878123
H 1.9231849857 0.4612137141 1.4069125306
H 1.3105978551 1.537193062 0.1519111916
H -0.4634332177 0.5008730655 1.5915806453
H -0.0021941724 -1.0883711706 0.983487952
H -0.999710872 1.2168252475 -0.7466460027
H -0.6406993401 -0.4166537588 -1.3091500012
H -2.8060098599 0.3105549686 0.7158145774
H -2.434366698 -1.3231154363 0.1656355968
H -3.07460324 -0.1344503975 -0.9704768314
*
