! r2scan-3c def2/J RI DEFGRID2 scfconv6 printgap
%output
    printlevel normal
end
%cpcm
    smd true
    smdsolvent "water"
end
* xyz 0 1
C -2.0489641543 0.0951753162 -0.6481563177
O -1.3210468771 -0.2819417839 0.5055451283
C -0.0404576992 0.3011353692 0.6138587883
C 0.9862583542 -0.2792270365 -0.3742424171
O 2.3049271953 0.0849368031 -0.0402665637
H -2.0942070701 1.1853022078 -0.7390748194
H -3.0511746597 -0.302538465 -0.5084286376
H -1.6126491531 -0.3284426313 -1.5565891927
H -0.1125866774 1.3916882373 0.487081398
H 0.290270176 0.0802454712 1.6318137599
H 0.753055955 0.0307544514 -1.4007588206
H 0.9515531584 -1.3701683152 -0.3211526725
H 2.4036741552 1.0451077466 -0.1102163184
*
