  12
        -39.73110182
 C          0.0662619747       -0.1098350459       -0.2736287276
 H         -0.2424529689        0.1583475472       -1.2913315454
 C          1.4848313124        0.4129426232       -0.0162047145
 F          2.3506669192       -0.0488612128       -0.9198368740
 F          1.9449545404        0.0789666092        1.1864858535
 F          1.5185439850        1.7482695663       -0.0928075228
 O         -0.7550482439        0.4487610431        0.7075575732
 C         -2.0688697003        0.5926486592        0.4169902617
 F         -2.6703665453       -0.5860589057        0.1369533246
 F         -2.2486654496        1.3430910776       -0.6995092479
 Cl         0.1164861972       -1.8995643355       -0.1534247789
 H         -2.5718847748        1.0697481227        1.2680823267
  12
        -39.72999543
 C          0.2182102830       -0.9793916153       -0.1815549139
 H          0.7058134606       -1.8472927552       -0.6400728145
 C          1.1876510669        0.2140887957       -0.2386206178
 F          1.3593344530        0.6457301617       -1.4935351941
 F          2.3936778378       -0.1588272963        0.2051392173
 F          0.8131396702        1.2595293195        0.4978985415
 O         -0.9733962611       -0.8228911470       -0.8812385762
 C         -1.7881795342        0.2455988063       -0.7084298699
 F         -1.2253634250        1.3995655895       -1.1540772398
 F         -2.0930438622        0.4829253162        0.5858809630
 Cl        -0.0428116911       -1.3465357887        1.5626054001
 H         -2.7115588086        0.0641538837       -1.2759788709
  12
        -39.72683989
 C          0.2517125990       -0.5033234331       -0.8217255907
 H          0.5271812532       -0.6350963729       -1.8744166758
 C          1.2562117774        0.4519869746       -0.1482585715
 F          2.5118759943        0.0566204329       -0.3676412876
 F          1.0955833877        0.5305069831        1.1756423209
 F          1.1436938016        1.6908051514       -0.6348133552
 O         -1.0452638300       -0.0265983053       -0.8263177444
 C         -1.6742343327        0.2132778103        0.3647105918
 F         -2.9913546055        0.1042743993        0.1473216572
 F         -1.4702313881        1.4927714316        0.7664295132
 Cl         0.3972486081       -2.0883012152        0.0149898822
 H         -1.3842158545       -0.4576930235        1.1886971766
  12
        -39.72601352
 C          0.2160632616        0.4932729628       -0.7166076899
 H          0.5372744489        1.1723853109       -1.5159984017
 C          1.4147991503        0.2887615960        0.2540840070
 F          2.0550809362       -0.8657918886        0.0797021680
 F          1.0546066698        0.3552219663        1.5355806456
 F          2.3226160136        1.2584478302        0.0681446241
 O         -0.8343829821        1.1480258043       -0.0618011548
 C         -1.8164261828        0.4753522451        0.5798443226
 F         -1.3724930607       -0.5613782619        1.3233614244
 F         -2.6990794410       -0.0772544403       -0.2953192904
 Cl        -0.2379446456       -1.0695912223       -1.4564401786
 H         -2.3602913971        1.1837014443        1.2195178242
  12
        -39.72521161
 C          0.1528511088       -0.2845293641       -0.3706021124
 H         -0.0498274918       -0.3363515949       -1.4482484118
 C          1.5171216886        0.3761767603       -0.1350399669
 F          2.4918369424       -0.2812669894       -0.7670060782
 F          1.8428284353        0.4286630543        1.1537013323
 F          1.5285922031        1.6281905504       -0.5995308580
 O         -0.7762136740        0.4720698055        0.3245236351
 C         -2.0933498306        0.1557340848        0.1105550161
 F         -2.4554597701        0.4763295943       -1.1575748414
 F         -2.8190798412        0.9257872043        0.9222759473
 Cl         0.2462927233       -1.9644411132        0.2607490585
 H         -2.3436418357       -0.9039514864        0.2801451248
  12
        -39.72426820
 C          0.2195431366       -0.0635448979       -0.5495403603
 H          0.1486231366        0.2134722270       -1.6097844357
 C          1.5577232563        0.4260456215        0.0228847192
 F          2.5906848376       -0.0562938830       -0.6699458584
 F          1.7305141984        0.0758019351        1.2939822176
 F          1.6395955852        1.7586111903       -0.0370697673
 O         -0.7712487200        0.5098298200        0.2326185845
 C         -2.0666046368        0.3658100184       -0.1815524633
 F         -2.7424966782        1.4568993943        0.2055670591
 F         -2.6555102309       -0.6774400984        0.4471787433
 Cl         0.2025968630       -1.8598217294       -0.4475858211
 H         -2.1924297654        0.2247616580       -1.2673510632
