  22
        -29.09174815
 C         -1.9893137145        0.9071756668        1.2345656743
 C         -2.0941847651       -0.2570051436        0.2534833912
 C         -3.5227351794       -0.3906111530       -0.2671446762
 C         -1.1259281952       -0.0596647109       -0.9265689225
 C          0.3018126959       -0.0497146504       -0.4847625303
 C          0.9286421258       -1.1940875563        0.0170588311
 N          2.1820692478       -1.1875540858        0.4373438516
 C          2.8385066057       -0.0353180530        0.3579448333
 C          2.2338548483        1.1019733415       -0.1549535701
 N          0.9755486606        1.0941251222       -0.5718871647
 H         -2.2465481227        1.8412854284        0.7411512262
 H         -0.9769718377        0.9951894007        1.6238354445
 H         -2.6665779333        0.7599285425        2.0722389069
 H         -1.8219252843       -1.1804387121        0.7766517138
 H         -3.6097095325       -1.2377638729       -0.9429879480
 H         -4.2126826596       -0.5385675557        0.5597133292
 H         -3.8150919973        0.5097371653       -0.8020605357
 H         -1.3421117233        0.8884356662       -1.4191627545
 H         -1.2693568239       -0.8726397343       -1.6412136785
 H          0.4115802880       -2.1414892264        0.0791870926
 H          3.8600614959       -0.0395307964        0.7080327581
 H          2.7583518764        2.0431464292       -0.2386620714
  22
        -29.09174071
 C         -3.4393845755        0.8198756823       -0.2300167750
 C         -2.0415042110        0.4652721716        0.2693825454
 C         -2.0989052125       -0.7492063513        1.1920539045
 C         -1.1107600699        0.2039891027       -0.9304496760
 C          0.3067746734        0.0305361954       -0.4920501183
 C          0.8941233934       -1.2275813943       -0.3374415893
 N          2.1385424860       -1.3814906308        0.0847928349
 C          2.8228046640       -0.2772701240        0.3582143714
 C          2.2541552305        0.9781680920        0.1998660780
 N          1.0074502558        1.1299827753       -0.2205591822
 H         -4.1002287396        1.0177651148        0.6100733557
 H         -3.8547479828       -0.0026626449       -0.8077845327
 H         -3.4100327087        1.7051754318       -0.8598856652
 H         -1.6370465749        1.3158585076        0.8278297721
 H         -1.1104946272       -0.9953428904        1.5751876952
 H         -2.7511404292       -0.5485704546        2.0383690893
 H         -2.4866257166       -1.6139295856        0.6577978386
 H         -1.1619250683        1.0627821864       -1.6002251248
 H         -1.4456745569       -0.6880988201       -1.4609497751
 H          0.3523513691       -2.1361527784       -0.5604248626
 H          3.8367680462       -0.4130656508        0.7041392140
 H          2.8009593175        1.8862931479        0.4103590188
  22
        -29.09073293
 C         -2.1955938690       -0.7761502873        1.3060517029
 C         -2.2904798199       -0.1155621929       -0.0666759355
 C         -2.2593742134        1.4042158192        0.0621070903
 C         -1.1827939467       -0.6157303787       -1.0188881260
 C          0.1930289530       -0.2934491987       -0.5320673168
 C          0.9023650041       -1.1460188718        0.3185502183
 N          2.1051119710       -0.8460275475        0.7804705900
 C          2.6289078927        0.3109925525        0.3929132456
 C          1.9469327424        1.1534026943       -0.4723843485
 N          0.7406759662        0.8527715456       -0.9298839288
 H         -2.2159833465       -1.8596685844        1.2163936742
 H         -3.0340200654       -0.4689143068        1.9263173429
 H         -1.2762874874       -0.4870286999        1.8117783904
 H         -3.2449423607       -0.4036373027       -0.5201129797
 H         -3.0797021640        1.7459948463        0.6885839728
 H         -1.3246745162        1.7329408774        0.5112623796
 H         -2.3488960903        1.8733919665       -0.9138898239
 H         -1.3218000521       -0.1380335071       -1.9888523159
 H         -1.2784356462       -1.6965339918       -1.1323183285
 H          0.4976314366       -2.0974027445        0.6338802428
 H          3.6081744806        0.5495845646        0.7808121306
 H          2.3676968605        2.0886743811       -0.8136128181
  22
        -29.08872962
 C         -2.2561533943        1.6441388968        0.0250953285
 C         -2.1131387058        0.1591758572        0.3463567210
 C         -3.4739433369       -0.5308975777        0.2699905256
 C         -1.1290407296       -0.5250616816       -0.6153213694
 C          0.3149441995       -0.3074841578       -0.2833080191
 C          1.2671510297       -1.3011460827       -0.5369182551
 N          2.5514103126       -1.1407599383       -0.2687627374
 C          2.9157899699        0.0188554685        0.2668461720
 C          1.9829285314        1.0098304928        0.5288876049
 N          0.6971262901        0.8474422517        0.2541360247
 H         -2.6773125605        1.7761133861       -0.9694579886
 H         -1.2861422937        2.1290176706        0.0643330243
 H         -2.9163674926        2.1236582879        0.7436905630
 H         -1.7237853647        0.0583980006        1.3649460807
 H         -3.3966498794       -1.5774723913        0.5557672298
 H         -4.1796718047       -0.0455127922        0.9393450314
 H         -3.8685148210       -0.4766232132       -0.7422083735
 H         -1.3068593918       -0.1502326990       -1.6273684440
 H         -1.3129595451       -1.6012674729       -0.6287091918
 H          0.9886479441       -2.2530147252       -0.9679575772
 H          3.9665794963        0.1398038677        0.4839987960
 H          2.2588018459        1.9583273686        0.9674779388
  22
        -29.08833160
 C         -2.6583119447       -0.4832154886        1.4623470263
 C         -2.0837146277       -0.3054320764        0.0581208022
 C         -3.2167001364       -0.0632105864       -0.9375886310
 C         -1.0709614540        0.8612355228        0.0074897509
 C          0.3535937780        0.4082350992       -0.0451120433
 C          0.9136519346       -0.4613772651        0.8948742971
 N          2.1733829442       -0.8581892578        0.8307094687
 C          2.9041357575       -0.3916963798       -0.1752485833
 C          2.3622603282        0.4729104502       -1.1138200677
 N          1.0985503959        0.8667451520       -1.0490617238
 H         -3.3284204433       -1.3392499977        1.4899899610
 H         -3.2213395040        0.4014878685        1.7516717771
 H         -1.8716396339       -0.6446679680        2.1948316954
 H         -1.5683663380       -1.2295818440       -0.2281093839
 H         -2.8284680886        0.0126254541       -1.9502360034
 H         -3.9299723927       -0.8833255502       -0.9047992830
 H         -3.7409597998        0.8583445725       -0.6956966350
 H         -1.2048191579        1.4955488025        0.8860623166
 H         -1.2443414275        1.4739709890       -0.8771246069
 H          0.3398424709       -0.8514432964        1.7228208888
 H          3.9315077396       -0.7216987159       -0.2169421996
 H          2.9422262720        0.8628114970       -1.9382367296
  22
        -29.08830269
 C         -2.7536862880       -0.4707066612        1.4360882096
 C         -2.0677958427       -0.2902046320        0.0834185002
 C         -3.1110457104       -0.0600931242       -1.0078383610
 C         -1.0580953049        0.8828373578        0.1203226729
 C          0.3592252082        0.4224492125        0.0018652201
 C          0.9416623504       -0.4566128993        0.9196876804
 N          2.1896879592       -0.8768337844        0.8035261165
 C          2.8847696822       -0.4246890855       -0.2343394540
 C          2.3208323211        0.4510661134       -1.1490551184
 N          1.0685431477        0.8698375797       -1.0314397468
 H         -3.3309396250        0.4165265300        1.6864435604
 H         -2.0250100914       -0.6433770155        2.2243930639
 H         -3.4298292941       -1.3218798752        1.4059624785
 H         -1.5247342878       -1.2124245198       -0.1539568276
 H         -2.6334360903        0.0349543163       -1.9798111109
 H         -3.8063922742       -0.8952678357       -1.0480009467
 H         -3.6748693487        0.8476054945       -0.8060534582
 H         -1.1711166690        1.4307251605        1.0573575966
 H         -1.2486859361        1.5729018727       -0.7009668697
 H          0.3927897704       -0.8324970419        1.7713642749
 H          3.9026599474       -0.7748177907       -0.3203077833
 H          2.8732694580        0.8307145622       -1.9967732135
  22
        -29.08824572
 C         -2.6017380960       -0.3009530853        1.5334532462
 C         -2.1056716629       -0.3238981542        0.0881598087
 C         -3.2927164465       -0.1850978169       -0.8641009894
 C         -1.0843007428        0.8003280309       -0.1731790624
 C          0.3482261008        0.3691822243       -0.1275444768
 C          0.8589856674       -0.5426904572        0.7998953538
 N          2.1330144228       -0.8989371733        0.8155936922
 C          2.9280854237       -0.3497300522       -0.0943726195
 C          2.4354403492        0.5568682870       -1.0208936429
 N          1.1588579610        0.9091506959       -1.0372581616
 H         -1.7763345939       -0.3491966987        2.2389058438
 H         -3.2604662515       -1.1456272356        1.7206871696
 H         -3.1583560013        0.6144152820        1.7224441476
 H         -1.6239572449       -1.2888388044       -0.1057661295
 H         -4.0219493330       -0.9692134942       -0.6751026556
 H         -3.7790996230        0.7774414877       -0.7238440109
 H         -2.9674215868       -0.2625365732       -1.8987297345
 H         -1.2246874049        1.5950679304        0.5639413022
 H         -1.2479441697        1.2429052112       -1.1565045753
 H          0.2371464159       -1.0059198314        1.5513552183
 H          3.9653923603       -0.6489409794       -0.0709421476
 H          3.0660855593        1.0123957214       -1.7712457811
  22
        -29.08735077
 C         -2.2472640643        0.9267859813        1.3270143535
 C         -2.3507355639       -0.0325372579        0.1441191169
 C         -2.4268173810        0.7320176121       -1.1749212466
 C         -1.2060336323       -1.0540832730        0.1431832999
 C          0.1929147448       -0.5250769792        0.0254257276
 C          1.2710102396       -1.4192547241        0.0749083232
 N          2.5273388644       -1.0261800353       -0.0267121824
 C          2.7415957936        0.2772204313       -0.1794889109
 C          1.6867160513        1.1723974899       -0.2286383832
 N          0.4262657917        0.7726444848       -0.1279418101
 H         -3.1125761440        1.5843312258        1.3526073351
 H         -1.3521961099        1.5348357493        1.2378879048
 H         -2.2057451727        0.3767744412        2.2647992240
 H         -3.2768927218       -0.6103470933        0.2554871099
 H         -1.5332627867        1.3333476951       -1.3099451106
 H         -2.5166392665        0.0438095748       -2.0126578014
 H         -3.2924795522        1.3895620640       -1.1767867015
 H         -1.3578364338       -1.7541002913       -0.6839375044
 H         -1.2541581730       -1.6407333016        1.0653048910
 H          1.1144487008       -2.4821328995        0.1989289737
 H          3.7721242943        0.5891174183       -0.2604285308
 H          1.8381483420        2.2357069322       -0.3503320319
