  21
        -24.05173604
 C          3.7163987366        0.0638153342        0.2136312647
 C          2.3544530704        0.5078789158       -0.3057778761
 C          1.2325214301       -0.4006705916        0.1909154753
 C         -0.1334526110        0.0406036895       -0.3269226777
 C         -1.2567344311       -0.8724756844        0.1593927082
 C         -2.6314261819       -0.3651585746       -0.2791426432
 O         -2.9432007374        0.9035560587        0.2450633680
 H          3.9388670018       -0.9488027454       -0.1162217411
 H          4.4999604687        0.7235126984       -0.1517690207
 H          3.7340280937        0.0798866247        1.3014003568
 H          2.3637616188        0.5038244593       -1.3980429858
 H          2.1582458165        1.5323147405        0.0186010511
 H          1.2256278047       -0.3977869031        1.2839306046
 H          1.4281873999       -1.4256878980       -0.1340774029
 H         -0.1246140890        0.0437346620       -1.4190761216
 H         -0.3383772520        1.0615392143        0.0022421677
 H         -1.2304410126       -0.9328795019        1.2519821793
 H         -1.1146364729       -1.8811157320       -0.2330995104
 H         -2.6603820770       -0.2441489827       -1.3644533392
 H         -3.4028134038       -1.0958216006        0.0092095060
 H         -2.8653230545        0.8651636807        1.2051586353
