  35
        -49.04162967
 C          3.2949119878       -3.2962092224        0.9357262071
 C          2.8159753188       -2.7706804780       -0.4157773584
 N          2.7335618451       -1.3329080719       -0.4411162304
 C          1.5912552639       -0.6486294361       -0.2611061194
 N          0.4365078729       -1.3027511735       -0.2469375932
 C         -0.6526651349       -0.5351868633       -0.1093779859
 N         -0.6271901252        0.7968044663        0.0114270451
 C          0.5802716372        1.3276720072       -0.0124562800
 N          1.7234482224        0.6837795110       -0.1410575869
 S          0.6361758913        3.0667620176        0.1482048667
 C          2.4294556105        3.3356745122        0.0557192946
 N         -1.8229679188       -1.1832331803       -0.0928793278
 C         -3.1496543350       -0.5940222575        0.0365170429
 C         -3.2510664804        0.1524156439        1.3693699012
 C         -3.3991031700        0.3692188333       -1.1270856356
 C         -4.1563495433       -1.7436934455       -0.0035787725
 H          3.3375501411       -4.3818133475        0.9201568556
 H          4.2867590235       -2.9126121921        1.1666263562
 H          2.6098566508       -2.9841799251        1.7200027533
 H          1.8133748803       -3.1425219008       -0.6308078896
 H          3.4995241102       -3.0951220022       -1.2071270168
 H          3.5809595458       -0.7965421216       -0.3389122222
 H          2.9074942579        2.8205767091        0.8820811439
 H          2.5870286674        4.4066796782        0.1241370800
 H          2.7953859847        2.9489512846       -0.8893405884
 H         -1.7494412389       -2.1828884911       -0.1940627084
 H         -4.2433110828        0.5793373484        1.4851925615
 H         -3.0606154301       -0.5257765572        2.1983390769
 H         -2.5163828428        0.9515115086        1.3917823930
 H         -4.3943133434        0.7983099049       -1.0517080918
 H         -3.3122432162       -0.1540717691       -2.0768463186
 H         -2.6650827168        1.1686898545       -1.0969717803
 H         -3.9782380070       -2.4377241745        0.8153656160
 H         -5.1667161833       -1.3554387377        0.0903088577
 H         -4.0830678524       -2.2846675964       -0.9448928597
  35
        -49.04152325
 C          2.0326111386       -3.3273544746       -1.2297946882
 C          1.8301042676       -2.8236013812        0.1979736370
 N          2.1497712106       -1.4252090864        0.3350524758
 C          1.2434680137       -0.4415942930        0.1925854785
 N         -0.0462368464       -0.7596433970        0.1402238211
 C         -0.8813747044        0.2762782408        0.0415972355
 N         -0.4938338611        1.5610540995       -0.0028916088
 C          0.8089058480        1.7454895300        0.0568897081
 N          1.7332558765        0.8056902752        0.1506114154
 S          1.3456746964        3.4069132259        0.0008628892
 C          3.1423643791        3.1625005601        0.1156219995
 N         -2.2028127605        0.0775254585       -0.0290965557
 C         -2.9062241319       -1.1959799536        0.0216753556
 C         -4.3989493860       -0.8932780692       -0.1040778061
 C         -2.4477912390       -2.0801283453       -1.1418266530
 C         -2.6183295129       -1.8865564677        1.3583088729
 H          1.4030127549       -2.7646956760       -1.9147441024
 H          3.0703624332       -3.2089279187       -1.5347134161
 H          1.7682335382       -4.3791765176       -1.2958600794
 H          2.4600128081       -3.3905829397        0.8898802144
 H          0.7849725032       -2.9387159947        0.4886888431
 H          3.1121974851       -1.1390059111        0.2454384382
 H          3.5897632528        4.1505394724        0.1219679988
 H          3.4781781035        2.5916322200       -0.7434353033
 H          3.3677581388        2.6283021717        1.0322786121
 H         -2.7429769168        0.9259192533       -0.0915337672
 H         -4.9697985209       -1.8173425045       -0.0730519291
 H         -4.7306173002       -0.2571712211        0.7138445206
 H         -4.6088195175       -0.3909282164       -1.0459359998
 H         -2.9664420866       -3.0345648029       -1.1165655530
 H         -1.3788473290       -2.2520751198       -1.0643482720
 H         -2.6563306434       -1.5911806122       -2.0906615842
 H         -3.1272137915       -2.8454227392        1.4052177605
 H         -1.5490348406       -2.0447325396        1.4602913276
 H         -2.9592856561       -1.2663933720        2.1841588633
  35
        -49.04150970
 C          2.1084181108       -3.3562215994       -1.2097310540
 C          1.8269574667       -2.8268484325        0.1950651930
 N          2.1431316046       -1.4271257235        0.3232830497
 C          1.2374631320       -0.4426852905        0.1881298716
 N         -0.0530706899       -0.7585178356        0.1376877276
 C         -0.8868511186        0.2795084846        0.0503352025
 N         -0.4974362185        1.5639736714        0.0125005720
 C          0.8059629191        1.7458341549        0.0643320671
 N          1.7291373920        0.8040911039        0.1490524546
 S          1.3454737928        3.4064551966        0.0091772906
 C          3.1430554939        3.1576975741        0.0967114805
 N         -2.2091921543        0.0841572992       -0.0126935029
 C         -2.9148609379       -1.1886913205        0.0167227135
 C         -4.4079681422       -0.8804014526       -0.0895002271
 C         -2.4680146872       -2.0480995648       -1.1697333180
 C         -2.6175188755       -1.9085546612        1.3356369854
 H          1.8431874189       -4.4080294391       -1.2724600065
 H          1.5223496262       -2.8036197612       -1.9401848696
 H          3.1627237264       -3.2475915926       -1.4561300036
 H          2.4149888146       -3.3843784714        0.9307319492
 H          0.7670470057       -2.9327905363        0.4295514495
 H          3.1064763556       -1.1404646598        0.2457788194
 H          3.3820836111        2.6274901586        1.0122079288
 H          3.5931402261        4.1445240224        0.0908179692
 H          3.4631251117        2.5816272711       -0.7648807124
 H         -2.7473752506        0.9341381218       -0.0705198388
 H         -4.6253510893       -0.3582761612       -1.0188140810
 H         -4.9806512291       -1.8036995376       -0.0723492778
 H         -4.7306477957       -0.2606161138        0.7443468820
 H         -2.6850688148       -1.5387299872       -2.1058457236
 H         -2.9868995981       -3.0026874335       -1.1603637368
 H         -1.3984280019       -2.2221563667       -1.1063185353
 H         -3.1273935493       -2.8676018952        1.3653928249
 H         -1.5477125474       -2.0699869725        1.4260019516
 H         -2.9513768368       -1.3061252633        2.1773294555
  35
        -49.04145207
 C          1.8780963390       -3.7751867161       -0.6552210753
 C          1.6542692972       -3.0623475625        0.6771767564
 N          2.1329683689       -1.7039154344        0.6558815631
 C          1.3636878760       -0.6471527950        0.3475839904
 N          0.0442348970       -0.8136971624        0.2610918353
 C         -0.6482901585        0.2909678918       -0.0065001776
 N         -0.1045655687        1.5077982880       -0.1840913617
 C          1.2093805468        1.5405940440       -0.0755186873
 N          2.0025608449        0.5178911848        0.1825480440
 S          2.0051608326        3.0798503058       -0.2968779703
 C          0.5625986694        4.1366667075       -0.6184667839
 N         -1.9818333690        0.2425519544       -0.1264196893
 C         -2.8362412513       -0.9249410671        0.0396662466
 C         -2.6884035596       -1.4690745822        1.4637917753
 C         -4.2751768089       -0.4706438600       -0.2038208198
 C         -2.4421048632       -1.9961509198       -0.9812985264
 H          1.3623613135       -3.2445515333       -1.4517872960
 H          2.9386220316       -3.8143983659       -0.8945685142
 H          1.4942343442       -4.7905250942       -0.6052412445
 H          2.1691758445       -3.5978599015        1.4804448823
 H          0.5876253721       -3.0192571806        0.9024057985
 H          3.1258060268       -1.5380493932        0.5992002582
 H          0.0496735445        3.7753899884       -1.5033119891
 H          0.9422478695        5.1407572342       -0.7736803456
 H         -0.0997354275        4.1013655776        0.2397936276
 H         -2.4156928813        1.1315466846       -0.3170499098
 H         -2.9864948455       -0.7152111269        2.1889999008
 H         -3.3099056393       -2.3501696215        1.5974451464
 H         -1.6508009722       -1.7337229094        1.6431126586
 H         -4.3853446821       -0.0714842997       -1.2099494717
 H         -4.5610504152        0.2975966247        0.5117375643
 H         -4.9539681451       -1.3117155120       -0.0924583283
 H         -1.4052190876       -2.2772344597       -0.8261972024
 H         -3.0718598925       -2.8741632994       -0.8674800440
 H         -2.5536978533       -1.6118925089       -1.9926803191
  35
        -49.04143992
 C          2.0985636040       -3.7092967320       -0.7644074812
 C          1.7821429635       -3.0160677221        0.5592906936
 N          2.2013142688       -1.6383203879        0.5649253287
 C          1.3866738806       -0.6035514726        0.3047550827
 N          0.0736629756       -0.8190044186        0.2254192353
 C         -0.6643902929        0.2666397682        0.0060490687
 N         -0.1708020443        1.5098191596       -0.1313102730
 C          1.1419718253        1.5905733567       -0.0351370634
 N          1.9775100924        0.5912221710        0.1761123772
 S          1.8740224045        3.1675498801       -0.2058986154
 C          0.3866402630        4.1787211420       -0.4639196224
 N         -1.9965408709        0.1713560085       -0.1005994186
 C         -2.8042805477       -1.0334805469        0.0272100672
 C         -2.3868636963       -2.0447231471       -1.0444580878
 C         -2.6140344719       -1.6312901906        1.4244704419
 C         -4.2627637176       -0.6237170622       -0.1757348810
 H          3.1694364274       -3.6964068410       -0.9558255766
 H          1.7625797879       -4.7422997681       -0.7348644874
 H          1.5943299851       -3.2001710653       -1.5820446856
 H          2.2825986701       -3.5357489032        1.3825141984
 H          0.7057401671       -3.0196888419        0.7364529026
 H          3.1861826440       -1.4282621947        0.5163963559
 H         -0.1296954119        3.8281225764       -1.3510296709
 H          0.7250505535        5.2013260258       -0.5911098166
 H         -0.2567922016        4.0890885608        0.4047390012
 H         -2.4654626830        1.0490585234       -0.2575651721
 H         -1.3364216752       -2.2884440591       -0.9199284920
 H         -2.9776794432       -2.9522507412       -0.9561192403
 H         -2.5338040206       -1.6244966855       -2.0368525517
 H         -2.9244709466       -0.9187417638        2.1853535833
 H         -1.5653996985       -1.8678930471        1.5764178853
 H         -3.2038399591       -2.5375456318        1.5305129845
 H         -4.4040287653       -0.1872238868       -1.1623060443
 H         -4.9082820906       -1.4935137149       -0.0900978588
 H         -4.5648360971        0.1027219766        0.5759080591
  35
        -49.04136829
 C          3.2512751564       -3.4147563015        0.6563661369
 C          2.8155766164       -2.7401545603       -0.6424488685
 N          2.7446937374       -1.3071696122       -0.5126293326
 C          1.6018986785       -0.6362713983       -0.2899935110
 N          0.4439179952       -1.2777180538       -0.3790507029
 C         -0.6443640726       -0.5205411162       -0.1873635178
 N         -0.6143006434        0.7898804500        0.0801355331
 C          0.5948948182        1.3117743270        0.1473832123
 N          1.7367361540        0.6737586328       -0.0211253254
 S          0.6226707132        3.0252037842        0.5001019137
 C          2.4091176955        3.3665870280        0.5065610694
 N         -1.8182861619       -1.1555085909       -0.2738656381
 C         -3.1444157190       -0.5720346275       -0.1145935879
 C         -3.3563995586        0.5160973244       -1.1704760707
 C         -4.1565907254       -1.7011452355       -0.3078926526
 C         -3.2768285173        0.0233730248        1.2896011611
 H          2.5465137848       -3.1823480011        1.4507381739
 H          3.2856195108       -4.4925970456        0.5235838666
 H          4.2391351390       -3.0696785433        0.9551424125
 H          1.8169031026       -3.0755499071       -0.9248326296
 H          3.5193289559       -2.9830994228       -1.4451429615
 H          3.5939023278       -0.7966110910       -0.3273915226
 H          2.7019390709        3.6781603816        1.5040771859
 H          2.6109853148        4.1558188857       -0.2101280933
 H          2.9011548374        2.4409760197        0.2244601947
 H         -1.7485281126       -2.1386975992       -0.4823509646
 H         -2.6180872216        1.3002723529       -1.0333520323
 H         -3.2481004830        0.1000820353       -2.1697772034
 H         -4.3503235135        0.9437834706       -1.0734209881
 H         -4.0046830348       -2.4831205689        0.4333997563
 H         -4.0615342802       -2.1352505138       -1.3011707803
 H         -5.1667252419       -1.3166102324       -0.1977126505
 H         -4.2695216175        0.4429235187        1.4264735628
 H         -3.1118962817       -0.7437539916        2.0430695742
 H         -2.5388384610        0.8091325735        1.4190626750
  35
        -49.04123119
 C          2.0605411785       -3.4735546995        0.6740369612
 C          1.7798317214       -2.7944479264       -0.6650336414
 N          2.1114307391       -1.3920015871       -0.6471112092
 C          1.2290287863       -0.4287026512       -0.3266844760
 N         -0.0583934604       -0.7442239535       -0.2316886442
 C         -0.8721458782        0.2753461551        0.0486743227
 N         -0.4655074447        1.5424497782        0.2279688565
 C          0.8323051221        1.7289194585        0.1075202909
 N          1.7351161459        0.8015692231       -0.1621384401
 S          1.3615510311        3.3798604636        0.3386506186
 C          3.1582088202        3.2240038832        0.0936839696
 N         -2.1885693382        0.0762580938        0.1791873183
 C         -2.9109783985       -1.1767740447        0.0132295302
 C         -4.3885366536       -0.8842788197        0.2718060352
 C         -2.7172023675       -1.6935288322       -1.4156550064
 C         -2.3921584536       -2.2038158019        1.0239297554
 H          1.7836106315       -4.5231008740        0.6258111239
 H          3.1166357490       -3.4029429624        0.9262481297
 H          1.4828234147       -2.9951111487        1.4610845391
 H          0.7175622999       -2.8647662807       -0.9029978487
 H          2.3586296747       -3.2748532060       -1.4594466017
 H          3.0822601868       -1.1284953909       -0.5825758518
 H          3.4594853507        3.9168826532       -0.6849889979
 H          3.3427450114        2.1952131178       -0.1992565994
 H          3.6603542766        3.4620100810        1.0259198737
 H         -2.7125243731        0.9130627309        0.3810800431
 H         -4.7625603853       -0.1479754848       -0.4364180638
 H         -4.9726300170       -1.7938651654        0.1613637231
 H         -4.5317582089       -0.5041202084        1.2809834323
 H         -1.6587396857       -1.8434700916       -1.6053520201
 H         -3.1009715894       -0.9716057173       -2.1328885405
 H         -3.2410744362       -2.6358192418       -1.5506456004
 H         -2.9246429674       -3.1443055958        0.9120611575
 H         -1.3327679197       -2.3708589502        0.8567218541
 H         -2.5334691713       -1.8378148245        2.0382716301
  35
        -49.04113608
 C          1.8817352655       -3.7763572324       -0.6507879458
 C          1.6505819941       -3.0602807979        0.6785678242
 N          2.1254492113       -1.7005336478        0.6545828678
 C          1.3540113731       -0.6459824118        0.3461735174
 N          0.0348773388       -0.8150363930        0.2590528301
 C         -0.6594348709        0.2880199438       -0.0081879972
 N         -0.1166701795        1.5052054727       -0.1850122684
 C          1.1976469138        1.5429357115       -0.0767570108
 N          1.9904313169        0.5205186088        0.1813238706
 S          2.0221323154        3.0702716254       -0.2930500541
 C          0.6274002882        4.1932664276       -0.6193101122
 N         -1.9928760588        0.2367369746       -0.1281534417
 C         -2.8440265976       -0.9333728536        0.0386867982
 C         -2.6926323019       -1.4779045673        1.4621965445
 C         -4.2843964071       -0.4821909418       -0.2020749160
 C         -2.4490352738       -2.0026478284       -0.9838704218
 H          2.9431794562       -3.8116071768       -0.8865891506
 H          1.5023177490       -4.7932450026       -0.5986387529
 H          1.3662351302       -3.2507157231       -1.4507855754
 H          2.1641184006       -3.5917800632        1.4853847093
 H          0.5830109640       -3.0197210909        0.8997549189
 H          3.1179513798       -1.5318127246        0.6001059807
 H         -0.2708761348        3.5842818520       -0.5974119959
 H          0.7706182476        4.6494137259       -1.5933706556
 H          0.6058558200        4.9539675952        0.1542321268
 H         -2.4317368945        1.1233025872       -0.3182865109
 H         -2.9908337126       -0.7249726743        2.1883130356
 H         -3.3123854456       -2.3601404093        1.5963347201
 H         -1.6542977436       -1.7408299410        1.6396822981
 H         -4.5710235537        0.2845034130        0.5148652717
 H         -4.9609790649       -1.3249959701       -0.0905546387
 H         -4.3971941729       -0.0822635609       -1.2076260795
 H         -3.0766426582       -2.8821513291       -0.8697793947
 H         -2.5632043817       -1.6177435879       -1.9947117815
 H         -1.4112806717       -2.2815992847       -0.8308090571
  35
        -49.04111700
 C          1.8370860718       -3.6042785542       -1.2882981613
 C          1.6841408101       -3.1131902434        0.1501193424
 N          2.1564466527       -1.7626836185        0.3186543297
 C          1.3716871335       -0.6797696591        0.1975146211
 N          0.0508961223       -0.8451113083        0.1316530851
 C         -0.6558284728        0.2794462346        0.0525220525
 N         -0.1241109531        1.5142791001        0.0412155022
 C          1.1927351964        1.5460473986        0.1118793685
 N          1.9980363140        0.5034709135        0.1872878981
 S          1.9994629541        3.0972421619        0.0913404244
 C          0.5817186944        4.2356339890        0.0226227097
 N         -1.9921243747        0.2347955602       -0.0351335226
 C         -2.8336986050       -0.9534540084        0.0015948402
 C         -4.2823582584       -0.4853854482       -0.1343312677
 C         -2.4668259943       -1.8751585531       -1.1648446413
 C         -2.6367250667       -1.6804217320        1.3353459243
 H          2.8828373143       -3.5911478859       -1.5878594336
 H          1.4610938835       -4.6197512544       -1.3787923167
 H          1.2755033559       -2.9614946242       -1.9617258156
 H          2.2440958510       -3.7618032792        0.8302053525
 H          0.6311260251       -3.1194794634        0.4356776865
 H          3.1456489155       -1.5801663006        0.2505834270
 H          0.8395751143        5.0444939882       -0.6523362753
 H          0.3857850957        4.6216230820        1.0182136936
 H         -0.2669834460        3.6669940870       -0.3423000967
 H         -2.4403977448        1.1365019918       -0.0639335571
 H         -4.9522131393       -1.3406385725       -0.1149864346
 H         -4.5499911500        0.1780000536        0.6856294522
 H         -4.4268807545        0.0426930015       -1.0745374736
 H         -1.4237955293       -2.1635688982       -1.0816886352
 H         -2.6140603783       -1.3611172177       -2.1119317029
 H         -3.0873491570       -2.7668470017       -1.1487000861
 H         -2.9112225652       -1.0311104349        2.1637286925
 H         -3.2518589218       -2.5752467396        1.3718562998
 H         -1.5932409605       -1.9603195399        1.4433302318
  35
        -49.04085098
 C          3.2353069611       -3.5181539626       -1.2020216571
 C          2.7238642508       -3.1013251274        0.1752293321
 N          2.7781426628       -1.6748163088        0.3632677287
 C          1.7189489361       -0.8607448439        0.2397412345
 N          0.5021798052       -1.3846532248        0.1185737587
 C         -0.4958187754       -0.4988712979        0.0468524143
 N         -0.3371429526        0.8313599676        0.0846071957
 C          0.9189288520        1.2254346273        0.2010702135
 N          1.9833745666        0.4542558647        0.2818523776
 S          1.2390423971        2.9428857441        0.2532535940
 C         -0.4469729265        3.6078855976        0.1187139158
 N         -1.7220822455       -1.0262364788       -0.0743356191
 C         -2.9907102719       -0.3178332390       -0.1669753394
 C         -2.9863958360        0.5774846597       -1.4092660886
 C         -4.0903623883       -1.3729518291       -0.2839095910
 C         -3.2009687242        0.5234943833        1.0951177627
 H          2.6345187596       -3.0523663635       -1.9790517029
 H          4.2712389301       -3.2126510040       -1.3336469639
 H          3.1745785770       -4.5974794188       -1.3121473200
 H          3.3224742707       -3.5809103157        0.9566632556
 H          1.6790214778       -3.3913669686        0.2938175925
 H          3.6753087961       -1.2148263614        0.3610979913
 H         -0.8839460046        3.2895453997       -0.8215911005
 H         -0.3539923633        4.6880960096        0.1507823820
 H         -1.0404063549        3.2500716664        0.9530992262
 H         -1.7352948663       -2.0335581030       -0.0888370339
 H         -3.9212018669        1.1262384183       -1.4832161328
 H         -2.1641042605        1.2823046285       -1.3405779336
 H         -2.8582614052       -0.0231966264       -2.3069546981
 H         -5.0611245340       -0.8904793481       -0.3579152948
 H         -4.0945888739       -2.0202291609        0.5906284506
 H         -3.9420616996       -1.9838381076       -1.1719522469
 H         -3.2235502471       -0.1152801354        1.9752042580
 H         -2.3823731581        1.2286573688        1.1969397517
 H         -4.1374693040        1.0708635633        1.0330673721
  35
        -49.04083466
 C          3.0954319223       -3.7165885534        0.6787920621
 C          2.7433088613       -3.0236775641       -0.6359393848
 N          2.8081517954       -1.5892592313       -0.5261129671
 C          1.7390940042       -0.8079029074       -0.3077332885
 N          0.5189388928       -1.3302717457       -0.3957953796
 C         -0.4853423461       -0.4690452094       -0.2072852404
 N         -0.3296501876        0.8350372034        0.0593492310
 C          0.9299411195        1.2297804247        0.1242339474
 N          2.0005496518        0.4813704402       -0.0428592368
 S          1.2456724238        2.9128425593        0.4741264301
 C         -0.4486740041        3.5610322208        0.5853890770
 N         -1.7152215143       -0.9934386433       -0.3021943287
 C         -2.9888832452       -0.3167543593       -0.1025626242
 C         -3.1275575971        0.8226569760       -1.1157509465
 C         -4.0908599917       -1.3525085047       -0.3240875478
 C         -3.0590126639        0.2294673084        1.3266621307
 H          4.1059043818       -3.4579987017        0.9886035098
 H          2.4035155321       -3.4078201425        1.4583546500
 H          3.0327136634       -4.7950519845        0.5618454760
 H          1.7213396841       -3.2683690194       -0.9286523222
 H          3.4316629042       -3.3446155235       -1.4242543669
 H          3.6995888220       -1.1532974508       -0.3474645441
 H         -0.9907974155        3.0161299632        1.3504818563
 H         -0.9377566506        3.4517724570       -0.3768504765
 H         -0.3594226476        4.6089196368        0.8508815318
 H         -1.7251310708       -1.9826716539       -0.4931238496
 H         -4.0675744913        1.3470780817       -0.9677787181
 H         -2.3060526558        1.5195505232       -0.9862928702
 H         -3.0979429283        0.4309516793       -2.1299599018
 H         -4.0376290878       -1.7573282413       -1.3325280777
 H         -5.0656274828       -0.8913807951       -0.1906509114
 H         -3.9978357120       -2.1702192812        0.3876951932
 H         -2.2359153249        0.9180996997        1.4891937595
 H         -3.9977098863        0.7526407593        1.4866026622
 H         -2.9815683560       -0.5830403213        2.0458242506
  35
        -49.04043116
 C          3.1645344518       -3.7288545082        0.6576329282
 C          2.7367646259       -3.0278144417       -0.6297858233
 N          2.7964148073       -1.5941747575       -0.5100284930
 C          1.7278460771       -0.8131990783       -0.2938336874
 N          0.5080277323       -1.3400849506       -0.3618626040
 C         -0.4958106289       -0.4781768803       -0.1780512080
 N         -0.3396015645        0.8303071998        0.0630423271
 C          0.9192463062        1.2306932310        0.1149611399
 N          1.9885381603        0.4804142270       -0.0491533299
 S          1.2611192160        2.9171869176        0.4317111263
 C         -0.4103205361        3.6172853906        0.6087920851
 N         -1.7258683958       -1.0066796318       -0.2441340217
 C         -3.0009949298       -0.3188248045       -0.0997035592
 C         -3.1367583181        0.7464049771       -1.1922570451
 C         -4.1005423520       -1.3691198250       -0.2582035054
 C         -3.0860672852        0.3185532641        1.2905574569
 H          4.1892629689       -3.4672113463        0.9129397867
 H          2.5156884036       -3.4311928410        1.4774293879
 H          3.1014823234       -4.8066467078        0.5347469657
 H          1.7023817239       -3.2772983245       -0.8699778772
 H          3.3840576739       -3.3379377872       -1.4567858973
 H          3.6896224507       -1.1518988271       -0.3583577641
 H         -0.5367608240        3.9683373294        1.6279500338
 H         -1.1116368441        2.8219087924        0.3812547353
 H         -0.5120942112        4.4418069939       -0.0890342218
 H         -1.7364487222       -1.9957920149       -0.4353521959
 H         -4.0735116520        1.2854162156       -1.0803478353
 H         -2.3126831533        1.4495171535       -1.1248536470
 H         -3.1138444445        0.2813149966       -2.1752659436
 H         -4.0431155140       -1.8392496300       -1.2377192682
 H         -5.0765942563       -0.9021704863       -0.1589118710
 H         -4.0084554788       -2.1380193832        0.5059836900
 H         -2.2597634824        1.0081344944        1.4299348016
 H         -4.0224060252        0.8584648866        1.4014782547
 H         -3.0293951864       -0.4487551223        2.0593721723
  35
        -49.03741884
 C          2.3057983293       -3.4855086877       -0.4086435962
 C          1.9638199003       -2.6916700677        0.8506400996
 N          2.2305780431       -1.2844201873        0.6973063374
 C          1.3009142474       -0.3843234531        0.3331859932
 N          0.0252381837       -0.7584261259        0.2960258225
 C         -0.8385058786        0.2013530014       -0.0270272124
 N         -0.4860013537        1.4705985249       -0.3069622949
 C          0.8050065012        1.7151833244       -0.2402257977
 N          1.7547864094        0.8490427340        0.0671219789
 S          1.2895790361        3.3556864627       -0.5996513475
 C          3.0856076186        3.2121979857       -0.3664233836
 N         -2.1571723254       -0.0167685332       -0.1047152762
 C         -2.9910097518       -1.1920971995        0.0973028266
 C         -2.1804994737       -2.4111713174        0.5211470763
 C         -4.0161898197       -0.8480179497        1.1857814824
 C         -3.7139922907       -1.4827913790       -1.2246388854
 H          1.7209886963       -3.1188172542       -1.2485562343
 H          3.3621156066       -3.3859158779       -0.6506209604
 H          2.0810559914       -4.5379515221       -0.2587919254
 H          2.5470675156       -3.0644777635        1.6985157131
 H          0.9007634012       -2.7864573569        1.0746437124
 H          3.1866965808       -0.9804682504        0.5990951639
 H          3.5000223144        4.2003340130       -0.5350286895
 H          3.4806427275        2.4997516759       -1.0827285227
 H          3.2836781702        2.8756692098        0.6455108279
 H         -2.6610508581        0.8195726802       -0.3660042923
 H         -1.6584734817       -2.2138390693        1.4519107363
 H         -2.8503188662       -3.2564295637        0.6616347871
 H         -1.4456881477       -2.6619635920       -0.2366403936
 H         -4.6147759134        0.0113143637        0.8911859257
 H         -3.5074045450       -0.6109480445        2.1169360272
 H         -4.6818840758       -1.6896263116        1.3572743677
 H         -4.3762599521       -2.3371123853       -1.1131058233
 H         -4.3064404380       -0.6244166067       -1.5340647166
 H         -2.9907913803       -1.7021986314       -2.0062504024
  35
        -49.03713759
 C          2.3263450765       -3.4420528951        0.6028559865
 C          1.9644245464       -2.7444592079       -0.7066997887
 N          2.2287534311       -1.3287250791       -0.6605990633
 C          1.3023260318       -0.4111209447       -0.3315531300
 N          0.0282242414       -0.7834303927       -0.2586083645
 C         -0.8316884774        0.1900983980        0.0321460366
 N         -0.4763500602        1.4716251776        0.2448624540
 C          0.8118214609        1.7167580494        0.1432917994
 N          1.7564726581        0.8350811248       -0.1368095162
 S          1.2678029702        3.3840937070        0.4161822672
 C          3.0715673524        3.3090216282        0.1864511823
 N         -2.1470184232       -0.0265234906        0.1523491282
 C         -2.9877316338       -1.2014987021       -0.0221363283
 C         -3.9515580535       -0.9183492560       -1.1821821569
 C         -2.1749152324       -2.4554303245       -0.3214541719
 C         -3.7802365606       -1.3950063105        1.2771868057
 H          3.3855382687       -3.3227834606        0.8220061624
 H          1.7521711904       -3.0151132570        1.4213323531
 H          2.1027027248       -4.5031257118        0.5348049244
 H          0.8989635953       -2.8580361274       -0.9083176942
 H          2.5376454561       -3.1764149731       -1.5328278703
 H          3.1860680489       -1.0218280521       -0.5840071832
 H          3.2997930847        2.3013231280       -0.1462936682
 H          3.5550578067        3.5272085528        1.1332824197
 H          3.3523301890        4.0452952582       -0.5592758876
 H         -2.6483837278        0.8230857501        0.3726161452
 H         -4.6192130838       -1.7622757304       -1.3332219744
 H         -4.5521335427       -0.0353285436       -0.9746651738
 H         -3.3929714851       -0.7476029478       -2.0991698617
 H         -2.8473499203       -3.3048768353       -0.4168956913
 H         -1.4676689912       -2.6503154733        0.4781290176
 H         -1.6209146176       -2.3358054622       -1.2467221976
 H         -4.4495383375       -2.2464024731        1.1880237952
 H         -3.1006564623       -1.5715244958        2.1072720743
 H         -4.3740502329       -0.5109971272        1.4994157668
