  14
        -17.71018103
 C         -2.8506864758        0.4268758600       -0.1527473175
 C         -1.4418075986        0.2801362118        0.4086991632
 C         -0.6600317676       -0.8129830336       -0.3178801248
 C          0.7410122556       -1.0017701563        0.2335619269
 Cl         1.7627183494        0.4507687028       -0.0687556465
 H         -2.8155021852        0.6868688822       -1.2081111962
 H         -3.4020139290       -0.5043805255       -0.0467035774
 H         -3.3904893986        1.2087240233        0.3750398005
 H         -1.4966839683        0.0378569458        1.4720283112
 H         -0.9096314402        1.2283622466        0.3105254095
 H         -1.1839397759       -1.7651190532       -0.2104191337
 H         -0.6041286809       -0.5759997086       -1.3817410479
 H          1.2543366198       -1.8301663667       -0.2506238829
 H          0.7317171385       -1.1413507978        1.3131852170
  14
        -17.70999256
 C         -3.1172699064        0.4483395021       -0.1543970966
 C         -1.9220562028       -0.2553434770        0.4773257271
 C         -0.6076773496        0.2044088089       -0.1558607224
 C          0.5744938129       -0.5028497322        0.4813194311
 Cl         2.1197259577        0.0381883261       -0.2646169016
 H         -3.0393468623        1.5247993006       -0.0228672419
 H         -3.1651718595        0.2363121451       -1.2197344618
 H         -4.0425434452        0.1116007515        0.3054214072
 H         -2.0260267009       -1.3342783018        0.3505094633
 H         -1.9000337572       -0.0453333763        1.5480083465
 H         -0.6238111905       -0.0068784004       -1.2265381105
 H         -0.4977950585        1.2827800894       -0.0285518075
 H          0.5265550474       -1.5801482625        0.3319983057
 H          0.6543101320       -0.2755827708        1.5430349447
  14
        -17.70944765
 C         -2.7064384255        0.3821935670       -0.5551570103
 C         -1.9940216337       -0.2649724715        0.6273691105
 C         -0.5264161869        0.1542795366        0.7519156325
 C          0.3133165246       -0.3704636018       -0.3996438481
 Cl         2.0486723789        0.0353044924       -0.1493677083
 H         -2.6078310489        1.4641868604       -0.5125826491
 H         -2.2970327390        0.0338177342       -1.4991669670
 H         -3.7645741546        0.1343494485       -0.5339854528
 H         -2.0529897862       -1.3511794056        0.5393643766
 H         -2.5048233767        0.0220238830        1.5478576972
 H         -0.4574413212        1.2429629899        0.7842412169
 H         -0.1226857329       -0.2355989289        1.6881331763
 H          0.0364993850        0.0826407349       -1.3487023789
 H          0.2621622876       -1.4557366257       -0.4695520799
  14
        -17.70938541
 C         -2.3859201996        0.3969211012        0.5960202652
 C         -1.5089191119        0.2645124442       -0.6441382845
 C         -0.5894294856       -0.9574987753       -0.6028784855
 C          0.5105748611       -0.8655624027        0.4397402131
 Cl         1.6580090852        0.4709646958        0.0612894472
 H         -3.0735796319        1.2307027324        0.4791299150
 H         -2.9673729319       -0.5091303541        0.7498311675
 H         -1.7869419209        0.5796215027        1.4841826819
 H         -0.9030582514        1.1649802531       -0.7622048376
 H         -2.1500802365        0.1801744124       -1.5234022909
 H         -1.1800914777       -1.8469578807       -0.3739889439
 H         -0.1341506153       -1.0963460110       -1.5849649762
 H          1.1103903846       -1.7732808982        0.4617800543
 H          0.1176684109       -0.6532167505        1.4312185827
  14
        -17.70786611
 C         -1.8498156430        0.9707573238        0.0048156547
 C         -1.8128077133       -0.5247272236        0.2961484156
 C         -0.5745399955       -1.2327699897       -0.2579809257
 C          0.7277678453       -0.8667288349        0.4378719742
 Cl         1.4525059675        0.6544795539       -0.2010237509
 H         -2.7894478675        1.3967947182        0.3485738354
 H         -1.0382867826        1.4890920054        0.5076064556
 H         -1.7605954711        1.1536527362       -1.0638724542
 H         -2.6939408845       -0.9904069514       -0.1498023715
 H         -1.8639995179       -0.6850451789        1.3749692848
 H         -0.7096952187       -2.3086391873       -0.1278520872
 H         -0.4844150520       -1.0354606479       -1.3273314422
 H          1.4867960123       -1.6291588893        0.2735750247
 H          0.5820271019       -0.7083317436        1.5049453604
