  18
        -18.94150183
 C         -1.9812630202        0.5654342100       -0.6506546071
 C         -1.4901757697       -0.6396925429        0.1404006189
 C         -0.2526734932       -0.3089898571        0.9851201029
 C          0.9312189899        0.0951793633        0.1500108139
 C          1.3445276071        1.3504769095        0.0824903248
 C          1.6127029100       -1.0092359167       -0.5994691472
 H         -1.2037727836        0.9223280875       -1.3220495126
 H         -2.2499406511        1.3773682521        0.0216488340
 H         -2.8567684767        0.3040303009       -1.2409528614
 H         -2.2846901106       -0.9841642264        0.8065791126
 H         -1.2596127141       -1.4569390273       -0.5456526704
 H         -0.5053861213        0.5001885356        1.6730609684
 H          0.0106999191       -1.1891365670        1.5779748305
 H          2.1903293300        1.6415454570       -0.5180227654
 H          0.8548972321        2.1412151855        0.6256338503
 H          1.9471760048       -1.7828521828        0.0913250586
 H          0.9259387944       -1.4722383386       -1.3068210867
 H          2.4727464090       -0.6349905668       -1.1485300422
  18
        -18.94141644
 C         -2.7385813331       -0.0286388394       -0.2127247966
 C         -1.3397281017       -0.2733007435        0.3383611766
 C         -0.2645640428        0.3674838638       -0.5471921338
 C          1.1143822178        0.1506731022        0.0134520442
 C          1.7196434419        1.0667907460        0.7517033704
 C          1.7460429539       -1.1709005390       -0.3015840813
 H         -3.4878885022       -0.4879871154        0.4281063444
 H         -2.8354253348       -0.4507560925       -1.2109784677
 H         -2.9449211578        1.0379486003       -0.2716527533
 H         -1.2633116838        0.1428200217        1.3452754306
 H         -1.1629183946       -1.3484399506        0.4096216365
 H         -0.3276380586       -0.0627669444       -1.5495780008
 H         -0.4670040123        1.4376962388       -0.6225773159
 H          2.6988339513        0.9071836016        1.1709999035
 H          1.2606133603        2.0170800760        0.9671811287
 H          1.8951850126       -1.2670093341       -1.3771113906
 H          2.7078898891       -1.2738432257        0.1935937809
 H          1.0999644540       -1.9878959751        0.0164260570
  18
        -18.94056135
 C         -1.9099976163       -0.6565035947        0.6942218555
 C         -1.5651203973        0.4617065244       -0.2806966813
 C         -0.2458028088        0.2069361391       -1.0201089114
 C          0.9348261293        0.1395395842       -0.0838794065
 C          1.3817577371        1.2127982362        0.5482101763
 C          1.5677935894       -1.2080583316        0.0812560377
 H         -1.1542682952       -0.7274605303        1.4728856974
 H         -1.9683554904       -1.6120964732        0.1765394111
 H         -2.8709032534       -0.4653171048        1.1669651765
 H         -2.3666617449        0.5604155991       -1.0167925554
 H         -1.4937656170        1.4044242060        0.2646634690
 H         -0.3259358507       -0.7274998129       -1.5787736853
 H         -0.0918578616        1.0163075751       -1.7382019716
 H          2.2164736630        1.1694536702        1.2272896637
 H          0.9313500854        2.1816956680        0.4119493573
 H          1.9814357060       -1.5425106762       -0.8705188421
 H          2.3680540247       -1.1795298828        0.8164368236
 H          0.8265453349       -1.9418997935        0.3944491338
  18
        -18.94034939
 C         -2.7855359202       -0.0665766261       -0.0924756535
 C         -1.3979545386        0.5495051273        0.0443505426
 C         -0.3088334033       -0.5102524849       -0.0897258963
 C          1.1081091847       -0.0167059807        0.0299711935
 C          1.4520823608        1.2436226860        0.2358233417
 C          2.1383759932       -1.1003983782       -0.1065747493
 H         -2.8983748241       -0.5449375753       -1.0633407000
 H         -3.5543751812        0.6966025371        0.0039335442
 H         -2.9494653250       -0.8164491364        0.6788410532
 H         -1.2636325774        1.3093304538       -0.7279267286
 H         -1.3143640551        1.0362969927        1.0179360979
 H         -0.4668921869       -1.2792067220        0.6740057460
 H         -0.4152931622       -1.0068514951       -1.0601163384
 H          2.4865724662        1.5347605747        0.3123508373
 H          0.7343655037        2.0374564027        0.3371013113
 H          2.0446258459       -1.5922578835       -1.0744612317
 H          3.1439611937       -0.6987236642       -0.0164114352
 H          1.9950959364       -1.8581052742        0.6634391660
  18
        -18.94009487
 C         -2.7427249186       -0.1200295259       -0.0613257308
 C         -1.2988018224       -0.0021319394       -0.5320762387
 C         -0.3191662462        0.0124154743        0.6469834250
 C          1.1026676351        0.1124333488        0.1729996992
 C          1.7895789957        1.2409687359        0.2536025246
 C          1.7026373860       -1.1335821956       -0.4187791792
 H         -3.4226504659       -0.1254468646       -0.9103627732
 H         -3.0043400678        0.7171472448        0.5823769092
 H         -2.8880067823       -1.0407472605        0.5003108259
 H         -1.0633921870       -0.8385002780       -1.1934425975
 H         -1.1736214604        0.9186457060       -1.1060850769
 H         -0.5551979438        0.8605681589        1.2924865571
 H         -0.4478156626       -0.9041328016        1.2290301639
 H          2.8038213017        1.3150261743       -0.1019686296
 H          1.3686076039        2.1356919808        0.6798444221
 H          2.5503105621       -1.4640736164        0.1800922386
 H          0.9763466237       -1.9408293140       -0.4562399445
 H          2.0651175088       -0.9450840144       -1.4277907311
  18
        -18.93969959
 C         -2.0176412779        0.3587944600       -0.8176022955
 C         -1.5776286804        0.0637795108        0.6108468719
 C         -0.2664490159       -0.7219329325        0.6549909882
 C          0.9342263627       -0.0138096163        0.0777307830
 C          1.1293991195        1.2926903778        0.1477122357
 C          1.9368403866       -0.9247395210       -0.5665203319
 H         -2.1713676930       -0.5676131561       -1.3673418966
 H         -1.2597936956        0.9424389374       -1.3344124356
 H         -2.9499230614        0.9189989331       -0.8228644247
 H         -1.4716558847        0.9980486926        1.1634160713
 H         -2.3502812268       -0.5249718471        1.1115289996
 H         -0.0415778963       -0.9772122425        1.6962802308
 H         -0.4069814121       -1.6634979514        0.1177301941
 H          2.0135715187        1.7511206695       -0.2629179763
 H          0.4278594852        1.9634853843        0.6114230714
 H          2.8226346675       -0.3780887344       -0.8790638858
 H          2.2349100707       -1.7083313842        0.1296615957
 H          1.4991782488       -1.4072098755       -1.4404290848
  18
        -18.93968200
 C         -2.0269840435        0.3829281539       -0.8050760268
 C         -1.5776235742        0.0561862374        0.6135905427
 C         -0.2687628498       -0.7339040944        0.6323955605
 C          0.9351039999       -0.0175354263        0.0729228946
 C          1.1183649487        1.2910945548        0.1343694457
 C          1.9576525298       -0.9255688696       -0.5441401350
 H         -1.2706817916        0.9737590922       -1.3158769250
 H         -2.9569720471        0.9468695207       -0.7916293156
 H         -2.1888018877       -0.5313337600       -1.3725686651
 H         -1.4653771209        0.9776225909        1.1862028080
 H         -2.3485555934       -0.5413208080        1.1065710678
 H         -0.0419418279       -1.0186794525        1.6656940607
 H         -0.4135402847       -1.6604358437        0.0703515441
 H          2.0069279749        1.7523074918       -0.2635157779
 H          0.4030122827        1.9609828215        0.5775877938
 H          2.8488848336       -0.3756970382       -0.8350504088
 H          2.2412314350       -1.7070127043        0.1604849185
 H          1.5442549509       -1.4110453170       -1.4283464127
  18
        -18.93966625
 C         -2.0364622331        0.4051207426       -0.7927368442
 C         -1.5772827750        0.0492449394        0.6158073547
 C         -0.2710101477       -0.7448504646        0.6101810657
 C          0.9359750774       -0.0210196350        0.0679792895
 C          1.1087108285        1.2893271310        0.1220688545
 C          1.9769366812       -0.9260970730       -0.5224481872
 H         -2.9637486325        0.9727593713       -0.7608119899
 H         -2.2071481417       -0.4974682207       -1.3760771915
 H         -1.2818534975        1.0019647139       -1.2988662391
 H         -1.4584796622        0.9583604416        1.2065973452
 H         -2.3465110997       -0.5560731220        1.1019172694
 H         -0.0426234379       -1.0578739284        1.6350405474
 H         -0.4200635579       -1.6562617619        0.0246965457
 H          2.0014556956        1.7532179771       -0.2632144106
 H          0.3811499399        1.9581795389        0.5463433809
 H          2.2556263140       -1.6976925325        0.1948376830
 H          1.5832365802       -1.4244573264       -1.4084023209
 H          2.8679299162       -0.3710622011       -0.8038938982
  18
        -18.93955995
 C         -2.7736866620       -0.0923349761       -0.0737371406
 C         -1.3729809062        0.4770331971       -0.2636039809
 C         -0.3124635558       -0.4313892473        0.3604938704
 C          1.1079625375        0.0005457941        0.0922998306
 C          1.5098511401        1.2595312802        0.1549382799
 C          2.0550863371       -1.1144904716       -0.2369285782
 H         -2.8557302183       -1.0726997790       -0.5386773436
 H         -3.5169846403        0.5623181582       -0.5230620525
 H         -3.0032440129       -0.1962313135        0.9848434684
 H         -1.1639887678        0.5888050205       -1.3297488086
 H         -1.3263214534        1.4678418507        0.1894136514
 H         -0.4717162200       -0.4719583496        1.4429520909
 H         -0.4515811593       -1.4447004995       -0.0238871806
 H          2.5341221683        1.5341917840       -0.0335256046
 H          0.8437391327        2.0688519507        0.3969577444
 H          1.7557197060       -1.5983292800       -1.1669247827
 H          3.0725398299       -0.7482093063       -0.3470400334
 H          2.0359923683       -1.8684046605        0.5499336371
  18
        -18.93849026
 C         -2.1238643152       -0.7538715688       -0.6758736775
 C         -1.4905333247       -0.0687873276        0.5292093657
 C         -0.3551390544        0.9035217062        0.1602594789
 C          0.9987302276        0.2481608823        0.1129484884
 C          1.8742327420        0.4108671989        1.0926086314
 C          1.3064429730       -0.6074299650       -1.0789978453
 H         -2.5360022551       -0.0134870164       -1.3588875880
 H         -2.9325731652       -1.4070123751       -0.3539879549
 H         -1.4002090323       -1.3540393975       -1.2193328431
 H         -2.2699302354        0.4898969945        1.0523446706
 H         -1.1055226871       -0.8199675946        1.2221158643
 H         -0.5790073421        1.3610294645       -0.8064017329
 H         -0.3234910010        1.6993675023        0.9067191779
 H          2.8438817951       -0.0580857928        1.0742843005
 H          1.6580674066        1.0176960749        1.9558088885
 H          2.3747104106       -0.7963046459       -1.1528096391
 H          0.8009089621       -1.5691235061       -0.9940549606
 H          0.9681853566       -0.1284875992       -1.9959985982
  18
        -18.93847913
 C         -2.1474844572       -0.6650050457       -0.7388393083
 C         -1.5167488604        0.4045509854        0.1451355820
 C         -0.2874997194       -0.0913298117        0.9292847420
 C          1.0109446620        0.1360056039        0.2035098215
 C          1.8452515563        1.0955261944        0.5719256352
 C          1.3087732236       -0.7588584727       -0.9614774037
 H         -3.0167198313       -0.2612887922       -1.2541761561
 H         -2.4719846938       -1.5111321555       -0.1361772408
 H         -1.4485029800       -1.0274988848       -1.4867451539
 H         -1.2293203822        1.2651453587       -0.4627543296
 H         -2.2708085481        0.7458955037        0.8578575290
 H         -0.2436536359        0.4385318573        1.8825071306
 H         -0.4085473522       -1.1557118747        1.1446829674
 H          2.7743543418        1.2729062097        0.0563603472
 H          1.6340691746        1.7465493335        1.4036362193
 H          0.6906829155       -0.4847258145       -1.8159712748
 H          2.3510094767       -0.6717263393       -1.2587058291
 H          1.0983138064       -1.7975667127       -0.7125498815
  18
        -18.93846275
 C         -2.1572888062       -0.6867466988       -0.7235089832
 C         -1.4713606917       -0.1553523466        0.5297077709
 C         -0.3615406449        0.8708155409        0.2339664698
 C          1.0059824855        0.2529952454        0.1254306855
 C          1.9238039306        0.4420857602        1.0603409823
 C          1.2758408796       -0.5960135633       -1.0799499502
 H         -1.4534104521       -1.1894263064       -1.3805022947
 H         -2.6181889547        0.1290723089       -1.2771521293
 H         -2.9362334066       -1.3970918092       -0.4532550358
 H         -2.2285570480        0.3191871386        1.1576875250
 H         -1.0489036888       -0.9850150636        1.1006126697
 H         -0.6012335261        1.3958740844       -0.6941134801
 H         -0.3407729192        1.6092600556        1.0373621886
 H          2.9045138438        0.0012326416        0.9939790556
 H          1.7343005009        1.0447996470        1.9326309383
 H          0.7488794695       -1.5461881878       -0.9977641698
 H          0.9340395373       -0.0975465599       -1.9854414899
 H          2.3382329363       -0.8069408424       -1.1737496596
