  18
        -18.94150183
 C         -1.9812630202        0.5654342100       -0.6506546071
 C         -1.4901757697       -0.6396925429        0.1404006189
 C         -0.2526734932       -0.3089898571        0.9851201029
 C          0.9312189899        0.0951793633        0.1500108139
 C          1.3445276071        1.3504769095        0.0824903248
 C          1.6127029100       -1.0092359167       -0.5994691472
 H         -1.2037727836        0.9223280875       -1.3220495126
 H         -2.2499406511        1.3773682521        0.0216488340
 H         -2.8567684767        0.3040303009       -1.2409528614
 H         -2.2846901106       -0.9841642264        0.8065791126
 H         -1.2596127141       -1.4569390273       -0.5456526704
 H         -0.5053861213        0.5001885356        1.6730609684
 H          0.0106999191       -1.1891365670        1.5779748305
 H          2.1903293300        1.6415454570       -0.5180227654
 H          0.8548972321        2.1412151855        0.6256338503
 H          1.9471760048       -1.7828521828        0.0913250586
 H          0.9259387944       -1.4722383386       -1.3068210867
 H          2.4727464090       -0.6349905668       -1.1485300422
