  40
        -71.55753776
 C         -3.5524256446        1.3870131268        2.4983044296
 C         -2.3076838517        0.5287999208        2.5895028884
 O         -2.2124295802       -0.3905133459        1.4946968696
 P         -1.9868908336        0.0997292526        0.0061365251
 S         -1.0110979233        1.7839805183       -0.2511727914
 O         -3.4803192770        0.1502119682       -0.5575146590
 C         -3.7953132461        0.8483781912       -1.7593078854
 C         -3.2540963031        0.1394683567       -2.9860363606
 S         -1.2619701099       -1.7086332792       -0.8225288577
 C          0.2866356274       -1.8537029069        0.1965694191
 H         -0.0270240440       -1.9094260118        1.2457508467
 C          0.9859322516       -3.1272479827       -0.2421301708
 Cl         2.4055380128       -3.3969056243        0.7971399521
 N          1.1021296627       -0.6947884357        0.0627974252
 C          1.7753914242       -0.2999523621       -1.0989822874
 O          1.7874918341       -0.9166006118       -2.1312014793
 C          2.4153674485        0.9857890687       -0.7529910265
 C          3.2064343797        1.8204307016       -1.5144509910
 C          3.6565424067        2.9972948156       -0.9251136695
 C          3.3200102549        3.3205276285        0.3805153742
 C          2.5204544078        2.4801559097        1.1479866408
 C          2.0752015440        1.3133572438        0.5631698862
 C          1.2124900213        0.2437305226        1.0975424052
 O          0.7071414566        0.1106386951        2.1825367657
 H         -3.6390531283        2.0007377109        3.3907811260
 H         -3.4892984496        2.0378628837        1.6274801177
 H         -4.4361431392        0.7603434908        2.4044740689
 H         -2.3207181004       -0.1099610937        3.4750524646
 H         -1.4066848871        1.1493970377        2.6089721341
 H         -4.8868217580        0.8946046028       -1.7741623981
 H         -3.3862907683        1.8635997177       -1.6979686406
 H         -3.6013388194        0.6433137752       -3.8837214131
 H         -2.1653131206        0.1536603153       -2.9724307332
 H         -3.5871329753       -0.8954492802       -3.0016496399
 H          0.3197927572       -3.9818345045       -0.1340295288
 H          1.3325742458       -3.0402672900       -1.2716100884
 H          3.4590260533        1.5640805731       -2.5313826993
 H          4.2749098865        3.6733663514       -1.4964515381
 H          3.6807862893        4.2440188374        0.8081193965
 H          2.2479624780        2.7289342701        2.1614481806
