  26
        -26.32242011
 C         -3.9730355939       -0.1062829216        0.3121605441
 C         -2.7119650806        0.5340895271       -0.2549432507
 C         -1.4490531196       -0.1857465343        0.2132510199
 C         -0.1873608239        0.4500644261       -0.3670862971
 C          1.1180027621       -0.1413587214        0.1811770619
 H          1.0693760312       -0.1240279760        1.2763293329
 C          1.3023537662       -1.5867085304       -0.2748838611
 C          2.3006792997        0.7316171546       -0.2594710736
 C          3.6141014837        0.3791502977        0.4298798669
 H         -4.8596805186        0.4220388165       -0.0308537611
 H         -4.0489806996       -1.1447099941       -0.0035017874
 H         -3.9575155006       -0.0806351012        1.3997505971
 H         -2.7539659122        0.5135774692       -1.3464561464
 H         -2.6672115053        1.5811875966        0.0537561846
 H         -1.4005277467       -0.1525029855        1.3045106538
 H         -1.5125026492       -1.2333394427       -0.0852449896
 H         -0.2082242093        1.5192891167       -0.1395673109
 H         -0.1976057247        0.3474683691       -1.4549617175
 H          2.2176993528       -2.0070144542        0.1324897481
 H          0.4757654817       -2.2066661040        0.0611809272
 H          1.3525587018       -1.6363639735       -1.3608508094
 H          2.4239577582        0.6463476892       -1.3416293027
 H          2.0643867486        1.7752765278       -0.0372423355
 H          4.3864392259        1.0926293307        0.1507786508
 H          3.9563337096       -0.6128604026        0.1477024428
 H          3.4961660778        0.4086303065        1.5111456211
