  8
        -19.46150717
 C          0.0000622060       -0.0000472611        1.8312478934
 C          0.0001334250       -0.0001013683        0.3221710913
 Cl         0.5857318806       -1.5598069369       -0.3057028602
 Cl        -1.6438160009        0.2726764634       -0.3056283020
 Cl         1.0580138282        1.2871843603       -0.3056674721
 H         -0.3598357065        0.9588205103        2.1978091360
 H         -0.6504115771       -0.7911339936        2.1978476177
 H          1.0103885095       -0.1678107949        2.1978913704
