! r2scan-3c def2/J RI DEFGRID2 scfconv6 printgap
%output
    printlevel normal
end
* xyz 0 1
C -3.3277088148 0.0013165278 -0.0524559817
C -1.9791219089 0.7064131889 0.0165233455
C -0.8477017688 -0.2951107794 0.2052797334
O 0.3900505872 0.4238690663 0.3007242566
C 1.5110440422 -0.1850059731 -0.0685932314
O 1.5473571422 -1.3282073001 -0.476136146
C 2.6994589195 0.7159538776 0.081863192
H -3.519171139 -0.5468747594 0.8662433517
H -4.1215738696 0.7284639505 -0.1938778633
H -3.3488927238 -0.7009528092 -0.8820311168
H -1.9632843374 1.408828046 0.8504614323
H -1.8023257497 1.2684596536 -0.9015106427
H -0.9804534534 -0.8691372425 1.12829818
H -0.7838008688 -0.9973569614 -0.6327885438
H 2.80765515 0.9883655402 1.1283720051
H 2.5334620282 1.625972289 -0.4877759232
H 3.5907051037 0.2053423244 -0.2671246799
*
