! r2scan-3c def2/J RI DEFGRID2 scfconv6 printgap
%output
    printlevel normal
end
* xyz 0 1
C -1.7725259666 1.4505827616 0.3192923548
C -1.1519391175 0.3165382982 -0.4888686649
C -0.2472153299 -0.6018013086 0.3410701431
H -0.7635966085 -0.8632344149 1.2714811987
C 0.0664288841 -1.8825379783 -0.4308676097
C 1.0593768112 0.0998737784 0.7315946918
O 1.7588420189 0.4956121996 -0.4320893503
H -1.0108060038 2.1289030781 0.6942956767
H -2.4551792079 2.0223245646 -0.3044630716
H -2.3295821612 1.0545805365 1.1658734599
H -0.5633335976 0.7272048685 -1.3109552074
H -1.9534292877 -0.2872990537 -0.91916867
H -0.8506326018 -2.3983486552 -0.7030399644
H 0.6756672469 -2.5519697103 0.1719909222
H 0.6140897644 -1.6376324456 -1.3374817128
H 1.6714962281 -0.5956339326 1.3227508125
H 0.8366238018 0.975172587 1.3557543691
H 2.5892283644 0.915392194 -0.1754424747
*
