! pbe def2-sv(p) def2/J RI DEFGRID1 loosescf d4 GCP(DFT/SV(P)) printgap
%output
    printlevel normal
end
* xyz 0 1
C 2.2120434403 0.7730877464 -0.5499978823
C 1.690453785 -0.434940146 0.2200018195
C 0.3046240552 -0.1952510651 0.8216472484
C -0.8202155296 -0.1334714944 -0.2315587793
C -1.5488229086 1.2086372185 -0.1870102272
C -1.8153619119 -1.276669447 -0.0364956688
H 3.1992806173 0.5675757859 -0.9571938628
H 1.5491804332 1.025600226 -1.3738802331
H 2.2847062893 1.6369533423 0.1073275556
H 1.6520588404 -1.3031274223 -0.4420447856
H 2.3899654815 -0.666778462 1.026666338
H 0.090460582 -0.9980331057 1.5297794106
H 0.3298601919 0.7365487099 1.3898239161
H -0.3771118004 -0.2451055903 -1.2267472218
H -0.8536258986 2.0279209175 -0.3547307992
H -2.0226983765 1.3498948996 0.7822933858
H -2.3195624381 1.250585956 -0.9538447078
H -2.583046136 -1.2507763326 -0.8070711682
H -1.3087432007 -2.2377835072 -0.0901329126
H -2.3014866598 -1.1950619543 0.9337588797
*
