! r2scan-3c def2/J RI DEFGRID2 scfconv6 printgap
%output
    printlevel normal
end
* xyz 0 1
C -1.4401337782 0.0376930646 0.6212757562
C 0.0663583699 0.334646397 0.5100724279
C 0.8184403346 -0.8842038175 -0.043570518
O 2.2158396884 -0.7425556116 -0.004903953
O 0.2834685175 1.4192752448 -0.3720729965
O -2.0067882498 -0.2840007697 -0.6255991714
H -1.9507419421 0.9115561742 1.051331445
H -1.609843498 -0.8218939059 1.2711968606
H 0.4542771521 0.5693242738 1.5114281147
H 0.5630988099 -1.0105777439 -1.0968243532
H 0.5004575833 -1.7776402238 0.5080815318
H 2.5040920318 -0.6338718361 0.9125271735
H 0.045503614 2.2500325555 0.0620224203
H -1.7073541019 0.3787368947 -1.2675945676
*
