! pbe def2-sv(p) def2/J RI DEFGRID1 loosescf d4 GCP(DFT/SV(P)) printgap
%output
    printlevel normal
end
* xyz 0 1
C -2.9474976701 -0.3628324289 -0.1394697643
C -1.7445300859 0.4979308605 0.2275151597
C -0.4282945186 -0.2078024218 -0.0890491753
C 0.7793654172 0.6594362682 0.2828990647
C 2.0255680949 -0.014216676 -0.0184873851
C 3.0409275043 -0.5931472609 -0.2768747362
H -2.9295526714 -1.2987232668 0.4146628578
H -2.9398166316 -0.5951446827 -1.2021254976
H -3.8740651263 0.1565458671 0.0924550299
H -1.7916637242 1.4400098362 -0.3239191532
H -1.7807186821 0.73491201 1.2935058745
H -0.3768381615 -1.1506453177 0.4606007557
H -0.3865953814 -0.4442166283 -1.1549155699
H 0.7527046118 0.8917853638 1.3511328405
H 0.7434808162 1.6009871526 -0.2720972851
H 3.9374632993 -1.0896611539 -0.4988275067
*
