! pbe def2-sv(p) def2/J RI DEFGRID1 loosescf d4 GCP(DFT/SV(P)) printgap
%output
    printlevel normal
end
* xyz 0 1
C -2.7627355055 0.2755803901 0.0036392985
C -1.3461818085 -0.0132985592 0.4845437976
C -0.3322391562 0.1304035004 -0.6627797488
C 1.052576136 -0.147601438 -0.1386439964
O 1.5757973869 -1.2385355616 -0.1805813835
O 1.6910608875 0.8704746621 0.4343770263
H -2.8388817696 1.2908350416 -0.3772424576
H -3.4660109805 0.1612000631 0.8238445775
H -3.0440898217 -0.4125164505 -0.7892163549
H -1.0897366168 0.6709657006 1.2953180064
H -1.2878426215 -1.0299055209 0.8782260247
H -0.559354917 -0.6033083211 -1.4362481627
H -0.3924000611 1.1323725306 -1.0884220014
H 1.2010103315 1.7122722081 0.3977621097
*
