  24
        -42.32575110
 C          4.4944742423        0.2806060320        0.1400654743
 N          3.0636358823        0.3877351727        0.3084182112
 C          2.6204741390        1.4117700082        1.2191664035
 C          2.2536627013       -0.4700600632       -0.3461144943
 O          2.6653679693       -1.3652037749       -1.0596316376
 C          0.7738281850       -0.2664195148       -0.1764058226
 C          0.1360178352        0.8055154752       -0.7973517000
 C         -1.2368070039        0.9320885937       -0.7252654997
 C         -1.9696663671       -0.0208760477       -0.0273958010
 C         -1.3477077812       -1.1036470739        0.5825621634
 C          0.0252603656       -1.2264146910        0.4984710295
 N         -3.4028700913        0.1157244688        0.0614945504
 O         -3.9110313812        1.0721922587       -0.4834341554
 O         -4.0113364355       -0.7311641651        0.6793880161
 H          4.6930518658       -0.5178584860       -0.5719456777
 H          4.9745737977        0.0459201068        1.0924749235
 H          4.8997996074        1.2201503155       -0.2407705841
 H          2.8313716411        2.4047784987        0.8114857307
 H          3.1528416139        1.3117089563        2.1684092586
 H          1.5532083409        1.3253287371        1.4068900927
 H          0.7183278771        1.5340365588       -1.3408286559
 H         -1.7535991914        1.7534994832       -1.1975418601
 H         -1.9482612510       -1.8311503478        1.1067625750
 H          0.5261849140       -2.0674601331        0.9522286584
  24
        -42.32570855
 C          4.4944819562        0.2295899505        0.2163231695
 N          3.0611845649        0.3524727891        0.3477412992
 C          2.6048130000        1.3359237175        1.2953605893
 C          2.2559980412       -0.4374948231       -0.3912593005
 O          2.6692999737       -1.2715284533       -1.1736662370
 C          0.7747686699       -0.2414414818       -0.2125648801
 C          0.1011218982        0.7021969139       -0.9841179706
 C         -1.2718023384        0.8189565036       -0.8943732861
 C         -1.9681325996       -0.0177175727       -0.0301265082
 C         -1.3096826430       -0.9745394439        0.7330666237
 C          0.0632450204       -1.0861734428        0.6350511167
 N         -3.4011027130        0.1082325656        0.0749742675
 O         -3.9760044585       -0.6337691324        0.8421347375
 O         -3.9427853880        0.9519547169       -0.6065649717
 H          4.9272937347        1.1781257600       -0.1080715491
 H          4.7016650757       -0.5382204770       -0.5263775099
 H          4.9401488308       -0.0569221138        1.1711660621
 H          3.0167159304        1.1187967866        2.2846213856
 H          1.5195169672        1.3334015127        1.3583778526
 H          2.9404238469        2.3325971993        0.9952964069
 H          0.6566874936        1.3394018196       -1.6551021921
 H         -1.8160052002        1.5439386198       -1.4800778159
 H         -1.8826009074       -1.6144791934        1.3865317287
 H          0.5902556424       -1.8298872145        1.2127614915
