! pbe def2-sv(p) def2/J RI DEFGRID1 loosescf d4 GCP(DFT/SV(P)) printgap
%output
    printlevel normal
end
* xyz 0 1
C -1.3602536595 -0.2918526291 -0.452949738
C -0.0104699909 -0.0377658749 0.2294766257
C 1.1148255989 -0.7941535013 -0.4953390609
O 2.3709018318 -0.4945170363 0.0681838866
O 0.2579273126 1.3480033618 0.2345535864
O -2.4605907137 0.2091060576 0.262324902
H -1.4729184505 -1.3712245479 -0.6242956895
H -1.3755239324 0.2267942373 -1.4132557677
H -0.0664665824 -0.3905226592 1.2752073499
H 1.164111771 -0.4540701783 -1.5322312422
H 0.9162870793 -1.8703991073 -0.4828733615
H 2.4525820077 -0.9238881554 0.9317817098
H 1.2206821449 1.4650456812 0.2836740379
H -2.4599528663 -0.1576509259 1.158002383
*
