! r2scan-3c def2/J RI DEFGRID2 scfconv6 printgap
%output
    printlevel normal
end
%cpcm
    smd true
    smdsolvent "water"
end
* xyz 0 1
C 1.5278740652 -2.2632273192 -0.0015076514
O 1.8439726001 -0.8833651926 0.0011404271
C 0.8750897481 0.0842226448 0.0005451623
C 1.3828818888 1.3804348248 0.0005308952
C 0.5548019245 2.4857369816 8.94515e-05
C -0.8142145741 2.3042200785 -0.0004401981
C -1.3392898391 1.0235639809 -0.0004034261
C -0.5197384018 -0.0993115835 0.0001816368
O -1.0122671268 -1.3839770128 0.0004716472
C -2.4125523986 -1.5768133535 -0.0003991522
H 0.9662135536 -2.5430749853 -0.8940355506
H 0.9642582373 -2.5461393898 0.8888058115
H 2.4941285987 -2.7649683238 -0.0013077826
H 2.4561975758 1.4851802597 0.0009498524
H 0.9803330743 3.4762507118 0.0002004712
H -1.4819786552 3.1509461712 -0.0008189853
H -2.4098285376 0.9024719265 -0.0007777176
H -2.5466516046 -2.6563964904 -7.16682e-05
H -2.8720610257 -1.1507752801 -0.8961267742
H -2.8732829898 -1.1500292359 0.8943149945
*
