  22
        -23.42025057
 C          1.7764870313       -1.2729584350        0.3911569665
 C          1.2304612762       -0.0102970540       -0.2852711234
 C          2.2712571847        1.1111918226       -0.2024092690
 N         -0.0083568869        0.4759949843        0.2991253862
 C         -1.2636347644        0.1279310620       -0.3335345172
 C         -2.3601575208        0.9890599159        0.2932346773
 C         -1.6470326029       -1.3573344541       -0.2445388037
 H          1.0566742793       -2.0865475211        0.3502843011
 H          2.6906989654       -1.5986505199       -0.0995610113
 H          2.0033812263       -1.0651841421        1.4357785460
 H          1.0376534901       -0.2254643384       -1.3430167320
 H          1.8885278031        2.0054795027       -0.6855638177
 H          3.1962316641        0.8129306234       -0.6893719050
 H          2.4819987944        1.3471391495        0.8377130817
 H         -0.0393711410        0.2745146911        1.2921757060
 H         -1.1668328511        0.4002656046       -1.3923252336
 H         -2.5118321060        0.7075859518        1.3332667603
 H         -2.0720028323        2.0358333620        0.2575874622
 H         -3.2979577968        0.8615958989       -0.2409719020
 H         -0.9358654591       -1.9756377609       -0.7872807423
 H         -2.6323854620       -1.5150625719       -0.6765591403
 H         -1.6707372350       -1.6790625963        0.7955619290
