  22
        -23.42025057
 C          1.7764870313       -1.2729584350        0.3911569665
 C          1.2304612762       -0.0102970540       -0.2852711234
 C          2.2712571847        1.1111918226       -0.2024092690
 N         -0.0083568869        0.4759949843        0.2991253862
 C         -1.2636347644        0.1279310620       -0.3335345172
 C         -2.3601575208        0.9890599159        0.2932346773
 C         -1.6470326029       -1.3573344541       -0.2445388037
 H          1.0566742793       -2.0865475211        0.3502843011
 H          2.6906989654       -1.5986505199       -0.0995610113
 H          2.0033812263       -1.0651841421        1.4357785460
 H          1.0376534901       -0.2254643384       -1.3430167320
 H          1.8885278031        2.0054795027       -0.6855638177
 H          3.1962316641        0.8129306234       -0.6893719050
 H          2.4819987944        1.3471391495        0.8377130817
 H         -0.0393711410        0.2745146911        1.2921757060
 H         -1.1668328511        0.4002656046       -1.3923252336
 H         -2.5118321060        0.7075859518        1.3332667603
 H         -2.0720028323        2.0358333620        0.2575874622
 H         -3.2979577968        0.8615958989       -0.2409719020
 H         -0.9358654591       -1.9756377609       -0.7872807423
 H         -2.6323854620       -1.5150625719       -0.6765591403
 H         -1.6707372350       -1.6790625963        0.7955619290
  22
        -23.41997777
 C          2.3280712092       -1.0399840444        0.2357633189
 C          1.2708285971       -0.0559499857       -0.2726137230
 C          1.7140079857        1.3815922423        0.0369510354
 N         -0.0026932521       -0.4416328898        0.2988233488
 C         -1.2382868631       -0.0750748192       -0.3635391768
 C         -1.7825840167        1.3112436843        0.0083325354
 C         -2.2847954474       -1.1420430377       -0.0272754007
 H          2.0076890684       -2.0588531048        0.0382619081
 H          3.2811770483       -0.8665108309       -0.2569019163
 H          2.4638116991       -0.9234709309        1.3085761871
 H          1.1813006065       -0.1720623616       -1.3594870737
 H          1.0502970520        2.1084832584       -0.4238105156
 H          2.7184534730        1.5524843615       -0.3428596898
 H          1.7197070254        1.5482438367        1.1130410728
 H         -0.0400716356       -0.2164826227        1.2863210889
 H         -1.0461908404       -0.1037582713       -1.4427409356
 H         -2.7360826636        1.4826779142       -0.4854528484
 H         -1.9358930238        1.3759626081        1.0843347918
 H         -1.0986805220        2.1005721883       -0.2912166092
 H         -1.8994564496       -2.1269433394       -0.2744779800
 H         -3.2014732462       -0.9695424286       -0.5852213978
 H         -2.5134551981       -1.1192978502        1.0356959525
  22
        -23.41979034
 C          2.1607854998       -0.9778191378        0.8119287736
 C          1.2269699237       -0.2527770411       -0.1528673038
 C          1.8774789748        1.0442010133       -0.6392163884
 N         -0.0185193971        0.0676340965        0.5306163849
 C         -1.1986560282        0.2303354485       -0.3009455308
 C         -2.2327821405        1.0349753985        0.4858942202
 C         -1.8045599247       -1.1005144374       -0.7677959357
 H          1.7318710760       -1.9291010160        1.1226993446
 H          3.1192091552       -1.1727797684        0.3373732339
 H          2.3256670308       -0.3647561081        1.6947883746
 H          1.0564183038       -0.9061148527       -1.0286763638
 H          2.8160956801        0.8311226508       -1.1446131202
 H          2.0686896262        1.6949979184        0.2095288495
 H          1.2234483058        1.5674511796       -1.3313105709
 H         -0.2119873371       -0.6173681921        1.2536048824
 H         -0.9002448393        0.8099695504       -1.1812569257
 H         -1.7947308757        1.9714608239        0.8186968984
 H         -3.1013294437        1.2484871214       -0.1317363857
 H         -2.5559710293        0.4762557086        1.3614587764
 H         -2.1387584819       -1.6813023762        0.0908106208
 H         -1.0721708437       -1.6880768219       -1.3179526417
 H         -2.6572487110       -0.9227617840       -1.4181292441
  22
        -23.41976952
 C          1.8431440425       -1.0205437104       -0.7252672815
 C          1.1983881637        0.2919429297       -0.2749981260
 C          2.1897399794        1.1022828018        0.5557359236
 N          0.0271109159       -0.0021769812        0.5384795324
 C         -1.2054204612       -0.3142540298       -0.1643923103
 C         -1.8976068609        0.9156900203       -0.7684826253
 C         -2.1447015946       -1.0210560062        0.8124992884
 H          1.1597837602       -1.5972182541       -1.3424630121
 H          2.7423294844       -0.8203778782       -1.3025104058
 H          2.1033384279       -1.6148349146        0.1462569799
 H          0.9382979020        0.8789747029       -1.1757781828
 H          2.4443014124        0.5548786541        1.4600868059
 H          1.7622844344        2.0628705936        0.8384210771
 H          3.0992040080        1.2853579035       -0.0108769997
 H         -0.1460676914        0.7557214625        1.1907827321
 H         -0.9540577510       -1.0092880525       -0.9726207161
 H         -2.7955378865        0.6197570980       -1.3048826249
 H         -2.1786103138        1.6126335214        0.0198673335
 H         -1.2383246277        1.4296909547       -1.4649921546
 H         -3.0468202566       -1.3514570936        0.3041567119
 H         -2.4257207044       -0.3461029516        1.6180474777
 H         -1.6450457659       -1.8829159187        1.2451945925
  22
        -23.41941023
 C          2.0208315803       -1.1419093647        0.6392668901
 C          1.2229837209       -0.1508453634       -0.2042452034
 C          2.0482150859        1.1109514932       -0.4751558829
 N         -0.0114639950        0.2385200644        0.4688309244
 C         -1.2301219750        0.1945612804       -0.3160529957
 C         -2.2913884042        1.0360621765        0.3911716883
 C         -1.7530555172       -1.2296428087       -0.5545437839
 H          2.2671286805       -0.6981999502        1.6017559653
 H          1.4463368227       -2.0512026665        0.8095458161
 H          2.9463953119       -1.4105381129        0.1357112277
 H          0.9954628545       -0.6242862953       -1.1720784108
 H          1.4639062126        1.8169039501       -1.0590107286
 H          2.9556995540        0.8672311255       -1.0220431009
 H          2.3155141460        1.5843663337        0.4656358680
 H         -0.1377081701       -0.2822210948        1.3288740344
 H         -1.0032954704        0.6572406216       -1.2839888313
 H         -3.1940846058        1.0964408913       -0.2110960449
 H         -2.5426379695        0.5932080207        1.3524897235
 H         -1.9117174922        2.0389677856        0.5635829729
 H         -2.6405178488       -1.2100403661       -1.1820704722
 H         -2.0103893432       -1.6966154113        0.3951150537
 H         -0.9989003605       -1.8411108643       -1.0462126410
  22
        -23.41839137
 C          1.7400502483        0.8657283018        1.0979283749
 C          1.3563075714       -0.3781736690        0.2945968552
 C          1.8311707658       -0.2458643780       -1.1607474955
 N         -0.0572102838       -0.6656629114        0.4634498505
 C         -1.0472273173        0.2439484908       -0.0951638027
 C         -2.1877295790        0.3892559858        0.9171000990
 C         -1.6057931938       -0.2230279677       -1.4439753925
 H          2.8220667220        0.9510438506        1.1566153072
 H          1.3520981114        1.7699186053        0.6360085418
 H          1.3366961576        0.7890797577        2.1036556116
 H          1.8762686486       -1.2355303626        0.7418596680
 H          1.5668723356       -1.1345312429       -1.7314199087
 H          2.9120444847       -0.1302972858       -1.1883269295
 H          1.3825369128        0.6235221318       -1.6360885192
 H         -0.2650886416       -1.6158503786        0.1806791994
 H         -0.5792550604        1.2239245206       -0.2262530075
 H         -2.9254638312        1.1055271678        0.5640279027
 H         -2.6750768473       -0.5706351857        1.0693988598
 H         -1.7934575870        0.7278685409        1.8707571694
 H         -0.8155541940       -0.3238414208       -2.1838603046
 H         -2.3365916002        0.4904749617       -1.8178276644
 H         -2.0971761005       -1.1882160741       -1.3290600451
  22
        -23.41654892
 C          2.3009614934       -1.0636866356        0.1639469957
 C          1.2540750892       -0.0402316410       -0.2717792427
 C          1.7466274642        1.3723459080        0.0541017090
 N         -0.0067896424       -0.3029809057        0.4077345558
 C         -1.2317565760       -0.0900197260       -0.3503158468
 C         -1.8005936301        1.3009586845       -0.0572116624
 C         -2.2618352941       -1.1557813152        0.0190219603
 H          2.4451822031       -1.0093449091        1.2407217392
 H          1.9866712474       -2.0732183915       -0.0969178973
 H          3.2520041505       -0.8657632865       -0.3242437229
 H          1.1242136911       -0.1182610413       -1.3679924685
 H          2.7225947399        1.5437156800       -0.3937789961
 H          1.8237250785        1.4908618974        1.1312764135
 H          1.0575837262        2.1198672964       -0.3258493453
 H         -0.0000564964       -1.2408614128        0.7882013698
 H         -1.0297952740       -0.1607171877       -1.4360549894
 H         -2.7535744263        1.4326650774       -0.5641325340
 H         -1.9479980180        1.4151249917        1.0130393950
 H         -1.1208633929        2.0765089750       -0.3956085278
 H         -3.1873737150       -0.9954387977       -0.5284119871
 H         -2.4758616594       -1.1094494774        1.0844772444
 H         -1.8912175452       -2.1513091004       -0.2209137702
  22
        -23.41443409
 C          1.6566650740       -0.2506930396        1.4287287915
 C          1.3953737624       -0.2608074647       -0.0795419447
 C          1.7670984607        1.0943937682       -0.6977810904
 N          0.0509859861       -0.7378480225       -0.3900079997
 C         -1.0911798095        0.1681157217       -0.3267779768
 C         -1.5022015910        0.4447824612        1.1196877527
 C         -2.2501681756       -0.5038741698       -1.0640915616
 H          2.7281154524       -0.2298439971        1.6139741590
 H          1.2146698846        0.6177593393        1.9063549944
 H          1.2406140560       -1.1476154566        1.8776108528
 H          2.0618994792       -1.0189539447       -0.5114202461
 H          1.5584936568        1.1007775243       -1.7665349845
 H          2.8278266908        1.2828793765       -0.5530780810
 H          1.2107471377        1.9018996061       -0.2274916817
 H          0.0655323468       -1.1512830224       -1.3155253181
 H         -0.8856148105        1.1330121197       -0.8250533150
 H         -0.8125805142        1.1269753053        1.6060506979
 H         -2.4920088746        0.8948418430        1.1425026810
 H         -1.5254088600       -0.4871232128        1.6769249453
 H         -1.9990170269       -0.6728415125       -2.1099949819
 H         -3.1392375721        0.1203992977       -1.0237802188
 H         -2.4716612956       -1.4625516032       -0.6017063501
  22
        -23.41441416
 C          1.2853729684       -0.6160287311        1.2595016143
 C          1.1359457072       -0.1344848223       -0.1834322482
 C          2.3926297105        0.6328925794       -0.5963409634
 N          0.0047452641        0.7752770156       -0.3278738482
 C         -1.3651145133        0.2717195990       -0.2802556693
 C         -1.8700042715        0.1543412059        1.1605563477
 C         -1.6078192972       -1.0369362728       -1.0446603111
 H          0.5328744227       -1.3565610576        1.5113691973
 H          2.2634342211       -1.0716829563        1.3965752255
 H          1.1905956687        0.2267810536        1.9379099567
 H          1.0462549047       -1.0187914272       -0.8411379335
 H          2.3293768450        0.9503178782       -1.6357969026
 H          3.2742404257        0.0069704002       -0.4840645203
 H          2.5045666694        1.5151896837        0.0286790910
 H          0.1298038139        1.2847783421       -1.1952757938
 H         -1.9651104369        1.0551947927       -0.7615356803
 H         -2.9565649524        0.1063522230        1.1645557561
 H         -1.4901421196       -0.7372709980        1.6484285219
 H         -1.5554369511        1.0248731876        1.7284592000
 H         -2.6742267484       -1.2446226745       -1.0827122276
 H         -1.1151683546       -1.8722734422       -0.5523711571
 H         -1.2349758819       -0.9618255078       -2.0648524194
  22
        -23.41182255
 C          1.7478609548       -1.3031641252       -0.0061461982
 C          1.2890333511        0.1117729901       -0.3728491327
 C          1.4242975918        1.0468004582        0.8372324352
 N         -0.0004397668        0.0993362264       -1.0543144175
 C         -1.2925040180       -0.0235972859       -0.3895463764
 C         -1.7882769769        1.2510717778        0.3156557458
 C         -1.3770922358       -1.2161427593        0.5566857398
 H          1.5151218640       -1.9843851431       -0.8194897372
 H          2.8238887418       -1.3052573788        0.1532677880
 H          1.2716313243       -1.6612951866        0.9003734374
 H          1.9853704189        0.4747360255       -1.1412186838
 H          1.0922018978        2.0523413097        0.5874044305
 H          2.4683692483        1.0963720741        1.1390834302
 H          0.8465290623        0.6826573198        1.6826163540
 H         -0.0545773780        0.8999027724       -1.6729756886
 H         -1.9893488531       -0.2166583707       -1.2201456815
 H         -2.8462610203        1.1509135888        0.5481578192
 H         -1.2533389890        1.4314007840        1.2431886710
 H         -1.6633241444        2.1173811253       -0.3322269598
 H         -1.0056336145       -2.1115810766        0.0682011580
 H         -2.4160063783       -1.3782353102        0.8360111787
 H         -0.8080588582       -1.0407318045        1.4653235096
