! r2scan-3c def2/J RI DEFGRID2 scfconv6 printgap
%output
    printlevel normal
end
%cpcm
    smd true
    smdsolvent "water"
end
* xyz 0 1
C 1.4833429573 0.1548363425 -1.1744000331
C 1.1160530159 -0.2329381749 0.2537919794
H 0.9954067843 -1.3257593318 0.3082973705
C -0.1474006563 0.4538913739 0.7946939054
C -1.5047738557 0.0949852587 0.1640812147
C -1.7794591491 0.8307654938 -1.1465086593
C -1.6867179528 -1.4107956158 -0.0165243062
O 2.2339099878 0.132884083 1.0589404791
H 0.8381143778 -0.3426770934 -1.889769708
H 1.4138611936 1.23119985 -1.3030179525
H 2.5110482419 -0.1482451956 -1.3605506269
H -0.2077853929 0.2039081961 1.858764127
H 0.0030143987 1.5339346085 0.7243903686
H -2.2609599656 0.436111102 0.8823999802
H -1.622871025 1.8998189979 -1.0252123035
H -2.8124053876 0.6698760935 -1.4477299727
H -1.1369667495 0.476855276 -1.9457633014
H -1.0263920435 -1.7919695117 -0.7911516698
H -1.4774388518 -1.9383676192 0.9110943824
H -2.7113847859 -1.6276885205 -0.309121323
H 2.0517159866 -0.0844181498 1.9826201713
*
