  22
        -41.95660787
 C          4.1086665531       -0.0712173941        0.0008175587
 C          3.7351395832        1.2594811718        0.0009774156
 C          2.3930243322        1.6052351074        0.0003254372
 C          1.4242625130        0.6169007579       -0.0004706568
 C          1.8007903737       -0.7261426688       -0.0005064550
 C          3.1425175803       -1.0651515735        0.0000637244
 O          0.8728977962       -1.7445602676       -0.0008816506
 C         -0.4428844911       -1.3601206407       -0.0004398694
 C         -1.4112527792       -2.3499091085        0.0002019020
 C         -2.7535568399       -2.0067550922        0.0008764052
 C         -3.1364469732       -0.6800231570        0.0008455239
 C         -2.1653204717        0.3114208402        0.0001073503
 C         -0.8138481075       -0.0130541726       -0.0005261932
 O          0.1039496666        1.0035037922       -0.0013292797
 Cl        -2.6137496917        1.9754575012        0.0000563881
 H          5.1521240956       -0.3445761609        0.0012607841
 H          4.4838137961        2.0359391316        0.0015254854
 H          2.0752426481        2.6353879479        0.0002659507
 H          3.4084208412       -2.1098928326       -0.0000906008
 H         -1.0920287285       -3.3791992521        0.0002199750
 H         -3.5025468551       -2.7822267683        0.0013848535
 H         -4.1766705590       -0.3992478821        0.0014695896
