! pbe def2-sv(p) def2/J RI DEFGRID1 loosescf d4 GCP(DFT/SV(P)) printgap
%output
    printlevel normal
end
* xyz 0 1
C 1.6797813497 0.347054022 -1.4321465504
C 2.2532657814 -0.2904586367 -0.1677337173
C 3.268011674 0.6573886535 0.4697789133
C 1.164127147 -0.6908776763 0.8695263738
C -0.2390971266 -0.3495933426 0.4586814654
C -0.7870883795 0.8899678228 0.7662354273
C -2.0732888611 1.2141832974 0.3727553276
C -2.8344242578 0.2992828796 -0.3347129689
C -2.301997867 -0.9415100842 -0.6416426646
C -1.0151793581 -1.2614784349 -0.2468581272
H 1.1617193216 1.2742168798 -1.1978184149
H 0.9774730269 -0.3214596766 -1.9240195665
H 2.4858238167 0.5700883885 -2.1279831735
H 2.7843879658 -1.1993463442 -0.4696672795
H 3.7220587141 0.2026495571 1.3473509971
H 4.0585880601 0.898735491 -0.2373543239
H 2.7833658245 1.5843429964 0.7689606146
H 1.3801876235 -0.1878447999 1.8133169479
H 1.2237445665 -1.7655988465 1.0481023713
H -0.2000064154 1.6078067658 1.3214697076
H -2.483774393 2.1824884984 0.6195526414
H -3.838560847 0.5506138733 -0.6422776836
H -2.891855876 -1.6621067532 -1.1890184233
H -0.6061283049 -2.232567525 -0.4877475296
*
