! pbe def2-sv(p) def2/J RI DEFGRID1 loosescf d4 GCP(DFT/SV(P)) printgap
%output
    printlevel normal
end
* xyz 0 1
C -2.0239847766 0.3046373907 -0.6788410825
C -1.4421597845 -0.7606700213 0.2419463197
C -0.2294940328 -0.240205583 1.0282359045
C 0.8931575868 0.1953652673 0.1174135654
O 1.1688735931 1.3688199036 -0.0465403276
C 1.6469601288 -0.9068903583 -0.5651200138
H -1.2855909986 0.6312230103 -1.4087272669
H -2.3340790033 1.1753477162 -0.1055530328
H -2.8883611867 -0.0837303127 -1.2114166372
H -1.1560355246 -1.6357693424 -0.3424614139
H -2.2034579707 -1.072950135 0.9584153145
H -0.5347096122 0.6176041748 1.6302562729
H 0.1337942098 -1.030305543 1.6855546568
H 0.9621351128 -1.5181534602 -1.1466015177
H 2.1103189171 -1.5440659451 0.1838593239
H 2.4113538048 -0.4919026288 -1.2161416311
*
