! r2scan-3c def2/J RI DEFGRID2 scfconv6 printgap
%output
    printlevel normal
end
%cpcm
    smd true
    smdsolvent "water"
end
* xyz 0 1
C 2.2673655821 0.2540012275 -0.7532037947
C 1.5243454715 0.5443163901 0.5461546702
C 0.3215051017 -0.3731358789 0.7747413741
C -0.7991639034 -0.2641475387 -0.2661988677
C -1.4232263384 1.1293783046 -0.2879797966
C -1.8740172269 -1.3091739068 0.0329014325
H 2.5497015601 -0.7953937797 -0.8029814817
H 1.650302414 0.4861064565 -1.61721613
H 3.1712442762 0.8559440489 -0.8122121005
H 2.2141534286 0.4079284946 1.382816183
H 1.2044456557 1.5872498138 0.5576658975
H 0.675789903 -1.4071779977 0.7924708438
H -0.0997555443 -0.1540733193 1.7595012511
H -0.3848388475 -0.4781296272 -1.2564708969
H -2.2613783626 1.1550242613 -0.9808406336
H -0.7023497293 1.878394198 -0.6039678715
H -1.7882558081 1.3954897009 0.7019453718
H -2.3152866348 -1.1286385976 1.0109838893
H -2.6646877713 -1.268647471 -0.7127166272
H -1.4493912504 -2.3104992376 0.0279011841
*
