! r2scan-3c def2/J RI DEFGRID2 scfconv6 printgap
%output
    printlevel normal
end
* xyz 0 1
C -2.8570822959 0.8503462687 -0.4958621083
C -2.4033830555 -0.2243722598 0.4861607342
C -1.1343939817 -0.9678858233 0.0521530611
C 0.1772622244 -0.3108875755 0.484918961
C 1.3940323983 -1.2197133888 0.1961220472
C 2.5006396449 -0.313083794 -0.3670276152
C 2.0296832271 1.1105041452 -0.074114952
C 0.5148028856 1.0084987924 -0.2171677502
H -3.0313891322 0.4155329948 -1.4776884966
H -3.7858737198 1.3013995019 -0.153278385
H -2.114093384 1.6351657342 -0.5955268588
H -2.2412624837 0.2234296058 1.4688965725
H -3.2127524593 -0.9510815535 0.5894666254
H -1.1555779984 -1.9680959172 0.4928089905
H -1.1386974436 -1.0876338365 -1.0336464134
H 0.1256242687 -0.1229351067 1.56268972
H 1.7206351221 -1.7198442601 1.1074096651
H 1.1291040915 -1.992927962 -0.5250159243
H 3.4717730075 -0.524667829 0.0779502391
H 2.5874060769 -0.4531716853 -1.4451306141
H 2.2854051573 1.3882192658 0.9498858832
H 2.4690714227 1.8431843863 -0.7496663466
H 0.00253778 1.8600572542 0.2275330096
H 0.2477784153 0.9469562223 -1.2734567304
*
