! pbe def2-sv(p) def2/J RI DEFGRID1 loosescf d4 GCP(DFT/SV(P)) printgap
%output
    printlevel normal
end
* xyz 0 1
C -1.9621735971 -0.2661189357 0.4764455299
O -1.0488358423 -0.2024238157 -0.6006469228
C -0.0368821384 0.7714467457 -0.4645744033
C 1.0733805253 0.4109410415 0.5279099198
O 1.8594025106 -0.6270077495 -0.0177455185
H -2.3942976982 0.7206922098 0.676083192
H -1.4930220042 -0.6461107961 1.3885886155
H -2.7431137192 -0.9537855209 0.1612734529
H 0.4044923061 0.8574076111 -1.459671276
H -0.4789136909 1.7333852736 -0.1697805488
H 0.6341736732 0.101264626 1.4840160102
H 1.683515232 1.3086573383 0.6920425398
H 2.5512009776 -0.8740093108 0.6113210005
*
