  23
        -41.49450804
 C         -0.5083980917       -2.2416593712        0.4511910114
 N         -0.1321767553       -0.9093297022        0.8730705491
 C         -1.2333745942       -0.0246887160        1.1202355161
 C         -2.0015466586        0.3866868510       -0.1485475511
 F         -2.7618957286       -0.6022562898       -0.6453449774
 F         -2.8356540377        1.4096316269        0.1057338349
 F         -1.1921121238        0.7817547678       -1.1375551309
 C          1.0729815252       -0.3691024075        0.3995741275
 C          1.8052183143       -0.9858862926       -0.6144298962
 C          3.0219933169       -0.4694730222       -1.0213107303
 C          3.5384752957        0.6699750984       -0.4329850763
 C          2.8230566417        1.2861048624        0.5797710878
 C          1.6103427350        0.7743668681        0.9954707490
 H         -0.8251800132       -2.2999048834       -0.5964256673
 H         -1.3334909920       -2.5812942518        1.0772609778
 H          0.3368082773       -2.9102398052        0.6057041650
 H         -1.9576763631       -0.5037742111        1.7877481314
 H         -0.8889377670        0.9017865975        1.5819446399
 H          1.4255755207       -1.8658681078       -1.1072626780
 H          3.5654440694       -0.9632799262       -1.8135964947
 H          4.4860830883        1.0726999606       -0.7560401563
 H          3.2152216814        2.1716727947        1.0580523950
 H          1.0918133428        1.2639473910        1.8062191606
  23
        -41.49423619
 C         -0.2813073852       -2.2340518446       -0.6008338432
 N         -0.0769684566       -0.9126216017       -0.0529878842
 C         -1.1131038886       -0.4338346895        0.8159243844
 C         -2.2048944922        0.3421012217        0.0666737813
 F         -3.1216252916        0.8235747636        0.9252622173
 F         -1.7328919841        1.3877784960       -0.6175555102
 F         -2.8735194739       -0.4222312816       -0.8093635746
 C          1.2042620146       -0.3736075613        0.0254897190
 C          2.3373667183       -1.1514114381       -0.2216311153
 C          3.6009625083       -0.5935242430       -0.1676013272
 C          3.7716813039        0.7443357685        0.1396451809
 C          2.6544216333        1.5246343098        0.3827994672
 C          1.3867178561        0.9799381573        0.3225767559
 H         -1.3306388715       -2.3525250346       -0.8649597526
 H         -0.0043157309       -3.0279041035        0.1050427993
 H          0.3058152064       -2.3427476248       -1.5105338502
 H         -1.6195840063       -1.2667216072        1.3217421592
 H         -0.7094311223        0.2397271613        1.5772618366
 H          2.2430271337       -2.2015271999       -0.4454415583
 H          4.4610873265       -1.2181211504       -0.3605591592
 H          4.7602694132        1.1746122687        0.1840244945
 H          2.7668555736        2.5740119131        0.6125031063
 H          0.5369905561        1.6254373219        0.4801894147
  23
        -41.49385487
 C         -0.4539622058       -2.2628773413       -0.4458044428
 N         -0.1368537935       -0.8759179898       -0.7174322268
 C         -1.2311658447       -0.0207749002       -1.0531346092
 C         -2.0754185684        0.4243284470        0.1551830056
 F         -1.3502875375        0.9469478788        1.1475098344
 F         -2.9743090291        1.3572236836       -0.2052233487
 F         -2.7760313302       -0.5910671698        0.6855557272
 C          1.1041080995       -0.3694726724       -0.3479871927
 C          2.1533199595       -1.2444099205       -0.0462656557
 C          3.4076640707       -0.7665876282        0.2795009288
 C          3.6610614121        0.5927861107        0.3164490207
 C          2.6309012837        1.4684501802        0.0255240106
 C          1.3713416144        1.0017423675       -0.2987016784
 H         -0.2504015509       -2.5228966540        0.5965140945
 H          0.1248648784       -2.9227228617       -1.0970336159
 H         -1.5093920911       -2.4395173269       -0.6371969096
 H         -0.8784875995        0.8828173992       -1.5557000305
 H         -1.9175573839       -0.5409563403       -1.7307485752
 H          2.0007566048       -2.3102381058       -0.0697799138
 H          4.1953198933       -1.4704056344        0.5062336272
 H          4.6415077849        0.9632268166        0.5726200505
 H          2.8015974322        2.5345330562        0.0574861345
 H          0.6012918458        1.7315146186       -0.4911224776
  23
        -41.49383817
 C         -0.4176460481       -1.9256126179        1.2816758804
 N         -0.1384037874       -0.5467803741        0.9411680068
 C         -1.2429581068        0.3583755859        0.9328085911
 C         -2.0993842068        0.2871774020       -0.3448443119
 F         -2.7724620473       -0.8706473632       -0.4410906523
 F         -3.0231542314        1.2642998118       -0.3575213359
 F         -1.3889236839        0.4106146985       -1.4688236361
 C          1.1151068665       -0.1881961862        0.4641055279
 C          1.3570869607        1.0418537030       -0.1543798904
 C          2.6255270262        1.3815818568       -0.5845012667
 C          3.6884209411        0.5114954844       -0.4223786824
 C          3.4599267183       -0.7127435179        0.1800374116
 C          2.1974303107       -1.0610758462        0.6187623335
 H          0.0874662805       -2.2086107733        2.2101143897
 H         -0.0967952731       -2.5985419909        0.4831834841
 H         -1.4874702441       -2.0579025739        1.4217894409
 H         -1.9191001102        0.1362218751        1.7664735769
 H         -0.9009235302        1.3909446359        1.0377434628
 H          0.5601955638        1.7461170658       -0.3321879899
 H          2.7778471927        2.3389284749       -1.0609578989
 H          4.6757601627        0.7806809287       -0.7642226233
 H          4.2741416737       -1.4099131864        0.3149337785
 H          2.0633064999       -2.0191964890        1.0922739319
  23
        -41.49309078
 C         -0.5653557389       -2.3255231636        0.4956840662
 N         -0.1739760127       -0.9720924841        0.8361079018
 C         -1.2371282017       -0.0761604455        1.1727082107
 C         -1.9532177085        0.5470557610       -0.0521537704
 F         -1.5259895331        0.0392619451       -1.2118354183
 F         -3.2812114904        0.3366982111       -0.0088913050
 F         -1.7899955730        1.8763175695       -0.1245898852
 C          1.0305221914       -0.4754875634        0.3374921248
 C          1.9998920823       -1.3471811342       -0.1680143504
 C          3.2187215191       -0.8747477441       -0.6149461036
 C          3.5131895003        0.4761615162       -0.5765978965
 C          2.5610200156        1.3494899523       -0.0838149052
 C          1.3376799421        0.8878855434        0.3639419053
 H         -0.5744196362       -2.4920521351       -0.5861342422
 H         -1.5635146922       -2.5201884059        0.8818994744
 H          0.1178928368       -3.0370532701        0.9615081764
 H         -1.9959735948       -0.6176418600        1.7447623453
 H         -0.8688995345        0.7433611348        1.7956536825
 H          1.8134459035       -2.4064906378       -0.2178413703
 H          3.9443015301       -1.5760453729       -1.0007349248
 H          4.4647182811        0.8424492763       -0.9296831589
 H          2.7637199169        2.4099207939       -0.0512066214
 H          0.6299204332        1.6177702088        0.7220880239
  23
        -41.49304982
 C         -0.4257106558       -2.3411927021       -0.1185520250
 N         -0.1197087642       -1.0343084433        0.4220985227
 C         -1.1904901068       -0.3160484015        1.0332304501
 C         -2.0851463751        0.4548276950        0.0302752942
 F         -1.8540540242        1.7753430193        0.0298194832
 F         -1.9261711352        0.0330856677       -1.2279138291
 F         -3.3897132708        0.3057127561        0.3238700741
 C          1.1179084598       -0.4528379526        0.1858488360
 C          2.2048166346       -1.2497425907       -0.1874415330
 C          3.4493820557       -0.6923152398       -0.4056275083
 C          3.6520494612        0.6683168793       -0.2547840017
 C          2.5840203458        1.4656444945        0.1152414530
 C          1.3322244324        0.9203523779        0.3299350148
 H         -0.0417815298       -2.4341794910       -1.1355009788
 H         -1.5042998396       -2.4787175731       -0.1561115088
 H          0.0028108106       -3.1364740669        0.5003066419
 H         -1.8455738799       -1.0174511813        1.5611696088
 H         -0.8088105057        0.4070075951        1.7594131127
 H          2.0858272849       -2.3150691998       -0.2968159205
 H          4.2705327217       -1.3329529443       -0.6926741268
 H          4.6257850183        1.1006392162       -0.4259909584
 H          2.7182845425        2.5311882861        0.2305333470
 H          0.5263973190        1.5868750314        0.5915115201
  23
        -41.49274233
 C         -0.5835920905       -0.4799857830        2.1474602212
 N         -0.1014038044       -0.8263730558        0.8253776770
 C         -1.1429517337       -1.1128516152       -0.1139461736
 C         -2.0655188612        0.0772879853       -0.4465685735
 F         -1.4338146534        1.2553088878       -0.4604492481
 F         -2.6393915786       -0.0714403574       -1.6524202188
 F         -3.0713681663        0.1976586422        0.4364441672
 C          1.1288112849       -0.3307967672        0.3772577824
 C          1.3419882787        0.0610617881       -0.9459996473
 C          2.5904359658        0.4767702903       -1.3718290061
 C          3.6597025492        0.5198427349       -0.4970419369
 C          3.4619846967        0.1335319662        0.8174798661
 C          2.2205060352       -0.2876545267        1.2492176139
 H         -0.9638509448        0.5473239732        2.1934462765
 H          0.2080869632       -0.5849818021        2.8820449654
 H         -1.3899701201       -1.1617609274        2.4181688059
 H         -0.7162718460       -1.4812048213       -1.0489963952
 H         -1.7950645920       -1.8930881364        0.2986762467
 H          0.5369860187        0.0714358270       -1.6637986643
 H          2.7196348896        0.7787650483       -2.4007966993
 H          4.6307912575        0.8498354697       -0.8322588885
 H          4.2849301800        0.1535473706        1.5170025774
 H          2.1113740801       -0.6017774429        2.2748120220
  23
        -41.48817088
 C         -0.1279279686       -2.7859534836        0.2021987946
 N         -0.3400885989       -1.3850225138       -0.1047417398
 C         -1.4369055124       -0.8087538717        0.6368206675
 C         -1.8079360464        0.5524189510        0.0641302815
 F         -0.9384383292        1.5203784499        0.3845914359
 F         -1.9089405611        0.5470545391       -1.2673483553
 F         -3.0015423424        0.9572197766        0.5379821234
 C          0.8747564490       -0.6209750261       -0.0567249101
 C          1.5065425868       -0.2866429967        1.1341368357
 C          2.6770362278        0.4499387383        1.1109688397
 C          3.2228674350        0.8518892471       -0.0958042880
 C          2.5971794325        0.5138612904       -1.2836801431
 C          1.4256796632       -0.2214930347       -1.2656534942
 H          0.6898126949       -3.1497232933       -0.4161604035
 H         -1.0307716054       -3.3439532796       -0.0450146339
 H          0.1219383341       -2.9645508829        1.2576022054
 H         -2.3139244007       -1.4525449667        0.5178519989
 H         -1.2502617600       -0.6650658072        1.7162216611
 H          1.0889197535       -0.5990651067        2.0810514494
 H          3.1636286406        0.7108150460        2.0393375835
 H          4.1347918939        1.4299301601       -0.1092317225
 H          3.0193638250        0.8281619051       -2.2265508905
 H          0.9189301541       -0.4869626171       -2.1802880304
  23
        -41.48814149
 C         -0.0722154984       -2.5719865216        1.1219510545
 N         -0.3131193536       -1.1908640639        0.7518784440
 C         -1.4005437585       -1.0513417014       -0.1887717008
 C         -1.8078748898        0.4088796360       -0.3282310901
 F         -1.9347806387        1.0310548061        0.8463988425
 F         -0.9504377423        1.1321716305       -1.0617774484
 F         -2.9995597482        0.5113836647       -0.9467200809
 C          0.8848885479       -0.5016371292        0.3577949802
 C          1.6152163652       -0.8567076654       -0.7689361794
 C          2.7638987493       -0.1585942446       -1.0948216239
 C          3.1868202306        0.8937548995       -0.3011980824
 C          2.4597331298        1.2478782835        0.8224000688
 C          1.3109940243        0.5515378579        1.1534995933
 H         -0.9639927480       -2.9665965424        1.6085664576
 H          0.7527977549       -2.5948606589        1.8305466658
 H          0.1778053299       -3.2161645614        0.2675382302
 H         -1.1822565706       -1.4218691025       -1.2071271416
 H         -2.2709760127       -1.5886486840        0.2002214882
 H          1.2899333185       -1.6772524206       -1.3932686758
 H          3.3288414728       -0.4365544254       -1.9725534669
 H          4.0823869068        1.4383720980       -0.5607352713
 H          2.7860967472        2.0702860809        1.4413540889
 H          0.7281908371        0.8167256023        2.0217162699
  23
        -41.48807947
 C         -0.1034142557       -1.9109423185        2.0607160793
 N         -0.2872838148       -0.7661873585        1.1894629016
 C         -1.4559288614       -0.9038863681        0.3506597334
 C         -1.8114880928        0.4107749831       -0.3291981096
 F         -1.0007741188        0.7189703718       -1.3508141116
 F         -3.0522101726        0.3501529143       -0.8494308931
 F         -1.8014368274        1.4538284783        0.5045624854
 C          0.8989540965       -0.3998361275        0.4670000955
 C          1.3591802589        0.9023880432        0.6006518363
 C          2.4986383302        1.3061860324       -0.0717686808
 C          3.1856591266        0.4116981168       -0.8746005769
 C          2.7300168158       -0.8886152661       -1.0061957508
 C          1.5882780579       -1.2959282869       -0.3399094513
 H         -0.0365642370       -2.8669849579        1.5238477200
 H         -0.9434774358       -1.9601227782        2.7536841612
 H          0.8112656060       -1.7626887090        2.6299935443
 H         -1.3538607773       -1.6587802881       -0.4512234355
 H         -2.3089187221       -1.1745285862        0.9807263530
 H          0.8122865161        1.5875242338        1.2293213532
 H          2.8508728707        2.3215874935        0.0316304573
 H          4.0753631000        0.7269715925       -1.3990107541
 H          3.2628784233       -1.5889023206       -1.6327720839
 H          1.2357482956       -2.3117493128       -0.4502912302
