  23
        -41.49450804
 C         -0.5083980917       -2.2416593712        0.4511910114
 N         -0.1321767553       -0.9093297022        0.8730705491
 C         -1.2333745942       -0.0246887160        1.1202355161
 C         -2.0015466586        0.3866868510       -0.1485475511
 F         -2.7618957286       -0.6022562898       -0.6453449774
 F         -2.8356540377        1.4096316269        0.1057338349
 F         -1.1921121238        0.7817547678       -1.1375551309
 C          1.0729815252       -0.3691024075        0.3995741275
 C          1.8052183143       -0.9858862926       -0.6144298962
 C          3.0219933169       -0.4694730222       -1.0213107303
 C          3.5384752957        0.6699750984       -0.4329850763
 C          2.8230566417        1.2861048624        0.5797710878
 C          1.6103427350        0.7743668681        0.9954707490
 H         -0.8251800132       -2.2999048834       -0.5964256673
 H         -1.3334909920       -2.5812942518        1.0772609778
 H          0.3368082773       -2.9102398052        0.6057041650
 H         -1.9576763631       -0.5037742111        1.7877481314
 H         -0.8889377670        0.9017865975        1.5819446399
 H          1.4255755207       -1.8658681078       -1.1072626780
 H          3.5654440694       -0.9632799262       -1.8135964947
 H          4.4860830883        1.0726999606       -0.7560401563
 H          3.2152216814        2.1716727947        1.0580523950
 H          1.0918133428        1.2639473910        1.8062191606
