  26
        -45.61236384
 C         -3.9271647434       -0.3115532754       -0.0004956817
 C         -3.7201388900        1.0605067506       -0.0003278256
 C         -2.4335679817        1.5653880352       -0.0000524127
 C         -1.3340700741        0.7100176428        0.0000785285
 C         -1.5441506291       -0.6723864658       -0.0000265280
 C         -2.8447395602       -1.1707448859       -0.0002069757
 C         -0.4125009638       -1.6194119335        0.0001336618
 O         -0.5858934229       -2.8252102254        0.0011228170
 C          0.9416794070       -1.0239328244       -0.0001158826
 C          2.0160468445       -1.8984631025       -0.0004073339
 C          3.3192619314       -1.4136900258       -0.0006070613
 C          3.5476089318       -0.0613297782       -0.0003201378
 C          2.4805355075        0.8594515423       -0.0000379747
 C          1.1464309662        0.3714259201        0.0000444888
 C          0.0230082975        1.2986399615        0.0005034091
 O          0.1556896532        2.5237338733        0.0001673621
 N          2.7395411724        2.1778792480        0.0002198132
 H         -4.9317842205       -0.7076912063       -0.0008774305
 H         -4.5635103081        1.7351301261       -0.0003233450
 H         -2.2520536845        2.6300627495        0.0001433004
 H         -2.9794509236       -2.2422960340       -0.0005144406
 H          1.8154550768       -2.9585551129       -0.0005945552
 H          4.1504332425       -2.1029770693       -0.0010323259
 H          4.5569021271        0.3257158803       -0.0003356042
 H          1.9484077246        2.8118987846        0.0007486054
 H          3.6866573207        2.5097989547        0.0011506907
