  10
        -14.01714784
 C         -0.9768603539        0.7047162301        0.0000107772
 C         -0.9770399027       -0.7044985567        0.0000213460
 C          0.3290923323       -1.1084124192        0.0000230096
 N          1.1147173079       -0.0001379373       -0.0000852394
 C          0.3293493671        1.1083636958       -0.0000236258
 H         -1.8393903757        1.3411714647       -0.0001718339
 H         -1.8397486823       -1.3408744720        0.0000050470
 H          0.7523157077       -2.0936019866        0.0000233778
 H          2.1207941018       -0.0003415094        0.0004792196
 H          0.7526924228        2.0935500533        0.0004732897
