  22
        -62.18182567
 C          2.7759694587       -1.3886717096       -0.0001440571
 C          1.5777083460       -0.6983741380       -0.0001611870
 C          1.5777138270        0.6983604660       -0.0000930740
 C          2.7759627882        1.3886732250        0.0000356081
 C          3.9802822772        0.6957387040        0.0000756016
 C          3.9802750719       -0.6957259958       -0.0000306508
 Cl         5.4574611375       -1.5698854236       -0.0000190595
 Cl         5.4574583500        1.5698853419        0.0002556748
 O          0.4123705426        1.4252942898       -0.0001498456
 C         -0.7436827481        0.6983757839       -0.0001275629
 C         -0.7436841175       -0.6983804012       -0.0001328802
 C         -1.9508687774       -1.3905005140       -0.0000306434
 C         -3.1620975277       -0.6957648940        0.0000549768
 C         -3.1620941979        0.6957655015        0.0000100195
 C         -1.9508674433        1.3905026865       -0.0000793064
 Cl        -1.9226137849        3.1022324555       -0.0001360051
 Cl        -4.6387064647        1.5584865278        0.0000811274
 Cl        -4.6387022011       -1.5584813898        0.0002167487
 Cl        -1.9226217817       -3.1022339245       -0.0000096678
 O          0.4123715401       -1.4253010865       -0.0002366298
 H          2.7607962416       -2.4658870225       -0.0002201102
 H          2.7607660492        2.4658840505        0.0001043409
