! r2scan-3c def2/J RI DEFGRID2 scfconv6 printgap
%output
    printlevel normal
end
%cpcm
    smd true
    smdsolvent "water"
end
* xyz 0 1
C -1.8916250592 1.2248104744 0.2425293658
C -1.1960645384 0.0854773647 -0.4895394981
C -0.1295385873 -0.6195637613 0.3537208728
C 1.0428507001 0.2829692159 0.7674427947
C 1.7709257225 0.9091584774 -0.4173554891
O 0.3171769362 -1.7292118667 -0.4118401155
H -1.2022501875 2.0400455749 0.4438518176
H -2.7060969121 1.6100532039 -0.3650115235
H -2.3018468542 0.8763025763 1.1876800269
H -1.9289720279 -0.6730605224 -0.7726959123
H -0.7343544433 0.4463971336 -1.4084662092
H -0.6118737641 -0.9923748364 1.274672615
H 0.6683011617 1.0598260173 1.4338983493
H 1.7484290482 -0.3259094452 1.3392502629
H 1.1674314085 1.6846054742 -0.880778546
H 2.7064582879 1.3552622086 -0.0895616555
H 1.989323542 0.149369618 -1.1645139909
H 0.9784623937 -2.2186907145 0.0956259631
*
