  35
        -52.64340836
 C          0.0258504180       -3.1215773619       -0.1958505288
 C          0.6651455781       -1.7747726276       -0.0739676052
 C          2.0502965262       -1.5894226669       -0.0713123742
 N          2.6077983772       -0.3926559523        0.0152441551
 C          1.7989249865        0.6678944205        0.1138176654
 N          0.4626809417        0.5930523992        0.1694702318
 C         -0.0753112611       -0.5976255140        0.0557669640
 O         -1.4412400604       -0.6925447607        0.1393945156
 C         -2.2159569928        0.3342959574       -0.3360348118
 O         -1.8458476513        1.1575059631       -1.1314493520
 N         -3.4690611958        0.2666737416        0.1669871014
 C         -4.4700573044        1.1844657459       -0.3211768856
 C         -3.9224405058       -0.7272184534        1.1075549232
 N          2.3510528195        1.8906445631        0.1734829591
 C          3.7773261444        2.0736022165        0.1763020135
 C          1.5364601974        3.0766723083        0.2133256594
 C          2.9853405233       -2.7517685249       -0.1783990748
 H         -1.0539727365       -3.0175757338       -0.2558537856
 H          0.3813273476       -3.6339826589       -1.0893718179
 H          0.2700952298       -3.7425278193        0.6665923136
 H         -3.9986720096        1.8567913635       -1.0342319099
 H         -4.8851084152        1.7639857144        0.5064500181
 H         -5.2788982928        0.6388117904       -0.8136583957
 H         -4.4727113721       -0.2368828975        1.9137388648
 H         -3.0727199884       -1.2574263408        1.5270052109
 H         -4.5866434835       -1.4461471130        0.6179650124
 H          4.0866490374        2.6112006057        1.0770612366
 H          4.0886577998        2.6511783976       -0.6987132735
 H          4.2502576486        1.0958214815        0.1526878121
 H          0.5022663734        2.7920279046        0.0377414498
 H          1.8613348858        3.7730015218       -0.5632706323
 H          1.6212084718        3.5706508841        1.1858623703
 H          2.8292699183       -3.2737643928       -1.1210360192
 H          4.0100964166       -2.3966823720       -0.1302574892
 H          2.8057388854       -3.4569528746        0.6311506515
