  12
        -19.93246143
 C         -2.3402118231        0.0000552028        0.0001067429
 C         -1.6468658701       -1.1985893673        0.0000700053
 C         -0.2627172225       -1.2059399838       -0.0001612894
 C          0.4192016006       -0.0000968649       -0.0002294576
 C         -0.2626756284        1.2058825008       -0.0000599098
 C         -1.6467541495        1.1986561410        0.0000032353
 Cl         2.1498366772        0.0000121039        0.0000845675
 H         -3.4196981367        0.0001807964        0.0003188541
 H         -2.1834812083       -2.1354475714        0.0001984596
 H          0.2842791053       -2.1357961212       -0.0001144910
 H          0.2845917986        2.1355407109       -0.0001225650
 H         -2.1834139007        2.1354821956       -0.0000293529
