! pbe def2-sv(p) def2/J RI DEFGRID1 loosescf d4 GCP(DFT/SV(P)) printgap
%output
    printlevel normal
end
* xyz 0 1
C -1.0760679165 -0.4685672425 -0.3477482925
C -0.0140390354 0.2085792312 0.5364351678
C 1.2784620187 -0.6238591813 0.6100752737
O 1.9155796592 -0.715057562 -0.6461379332
O 0.2758812811 1.5140422039 0.0927154223
O -2.3373444956 0.0803171574 -0.0328623425
H -1.0755905254 -1.5481002987 -0.1429844362
H -0.8337070455 -0.2917906424 -1.4025809018
H -0.4366268713 0.3201322815 1.5399078657
H 1.0685377916 -1.6126228796 1.028266015
H 1.9850869934 -0.1057587715 1.2624374136
H 1.4697478046 -1.3737605256 -1.1946895246
H 0.8948881907 1.4439193911 -0.6520006037
H -3.001134623 -0.2574682422 -0.6501861859
*
