! wb97x-v def2-tzvp def2/J RIJCOSX DEFGRID2 scfconv7 GCP(DFT/TZ) printgap
%output
    printlevel normal
end
%cpcm
    smd true
    smdsolvent "water"
end
* xyz 0 1
C 2.83752051609057 -0.41951328542609057 -0.08357894743823538
C 1.3941349994832535 -0.3589134287771088 0.4078811798497946
C 0.6249778368766413 0.8030391204822477 -0.21905699164830011
C -0.7888627209953382 0.9850159135039751 0.3141779419532608
S -1.8337274457587065 -0.5022841573340635 -0.08405185773780245
H 3.3822391502931177 -1.2498018248354192 0.3766052028783269
H 3.3717767626309585 0.506886570492866 0.15533861968180263
H 2.8749891531947305 -0.5551847412043112 -1.1703840553388893
H 1.3752422711023404 -0.25392170525902924 1.500538097892911
H 0.8923449736338483 -1.3069760154627115 0.17659120935123948
H 0.5984730599698684 0.6854322030279493 -1.3102133050849458
H 1.1652722592789975 1.7376872871967084 -0.016868308141385943
H -0.7764994715395421 1.1216319453588521 1.3996998071441795
H -1.2615387937805813 1.8561076233414837 -0.14562158494405655
H -3.0166922172743225 0.05568941397290246 0.2312212370783255
*
