  38
        -64.65732850
 C         -3.6292185030        2.6903881301        0.8625044162
 C         -2.9128235638        1.3820643922        1.1588374687
 O         -2.6796968002        0.6261329576       -0.0378045583
 C         -1.6655342795        0.9960532190       -0.8049912521
 O         -0.9295279051        1.9237247251       -0.5882591265
 C         -1.5376410196        0.0905323931       -2.0191573542
 C         -0.2571661699       -0.7494347553       -1.9488231575
 H         -0.1514693571       -1.3097214107       -2.8838459682
 C         -0.2686976590       -1.7551406035       -0.8116356135
 O          0.6861679430       -1.9479248636       -0.0997182202
 O         -1.4176686286       -2.3914723106       -0.7310072806
 C         -1.5951968252       -3.2924522003        0.3734919499
 C         -2.1101560675       -2.5433665281        1.5917345272
 S          1.2570906876        0.2606600900       -1.8386214615
 P          1.6988603310        0.3866097656        0.2633289763
 S          0.4325799893        0.2862633328        1.7591121981
 O          3.0203344703       -0.4828616369        0.4178482305
 C          3.1257187577       -1.6092166264        1.2683460796
 O          2.4769302180        1.7830082861        0.2236186429
 C          1.7828043857        3.0182459459        0.1775900733
 H         -4.5626610495        2.5017135705        0.3367216307
 H         -3.8447258283        3.2013246956        1.7962140326
 H         -2.9999118409        3.3306310363        0.2494059030
 H         -3.5234758757        0.7282906706        1.7835844343
 H         -1.9526399257        1.5663235071        1.6486527580
 H         -1.4850433850        0.7216319107       -2.9075662690
 H         -2.4031555851       -0.5694452872       -2.0728480207
 H         -2.3196467271       -4.0284006266        0.0189535400
 H         -0.6401680531       -3.7793482250        0.5917475788
 H         -1.3837426861       -1.7986857508        1.9109292435
 H         -3.0429394842       -2.0398096637        1.3514074418
 H         -2.2789383426       -3.2433506657        2.4046103268
 H          2.3301999183       -1.6048204114        2.0173456105
 H          4.0974269249       -1.5488398896        1.7583583312
 H          3.0574310674       -2.5224222624        0.6771490577
 H          1.0023388076        3.0471333458        0.9405559449
 H          1.3235907624        3.1684389907       -0.7998880409
 H          2.5257293415        3.7907107751        0.3702514784
