! pbe def2-sv(p) def2/J RI DEFGRID1 loosescf d4 GCP(DFT/SV(P)) printgap
%output
    printlevel normal
end
* xyz 0 1
C -2.5847214762 0.1486084087 1.0223840005
C -2.1700913989 0.4920272521 -0.4036005387
C -0.8576008475 -0.1752016632 -0.7887969268
O 0.1960291971 0.4042114172 -0.0049825378
C 1.385086669 -0.1817150101 -0.0319339868
O 1.6214884325 -1.1729319466 -0.6938006217
C 2.3707314884 0.5169976393 0.8553782005
H -1.8156550562 0.4642494688 1.7225392756
H -3.5131907608 0.6519392699 1.2760837955
H -2.7311515269 -0.9237327965 1.1288276756
H -2.050922012 1.5712228462 -0.5033956737
H -2.9346705774 0.1610186952 -1.1062152786
H -0.8807985486 -1.2538573308 -0.6002157256
H -0.6235756809 -0.0181403008 -1.8469495618
H 2.0425742531 1.5332112113 1.0448027006
H 3.3526327742 0.4989391446 0.392670251
H 2.4282741213 -0.0242094384 1.7974925432
*
