  26
        -36.04766011
 C          0.0000792363       -2.5243954136       -0.0000630695
 C         -0.0000272503       -1.1911062182       -0.0000417509
 C         -1.2552246537       -0.4196603638       -0.0452367395
 C         -2.3754890464       -0.8256823241        0.6757056453
 C         -3.5514397957       -0.1005384766        0.6157786071
 C         -3.6284479804        1.0387311458       -0.1681893755
 C         -2.5200510830        1.4515223437       -0.8895128289
 C         -1.3415510252        0.7317042328       -0.8256875485
 C          1.2552003872       -0.4196387392        0.0452019658
 C          1.3414138396        0.7319058151        0.8254090650
 C          2.5199225062        1.4517161901        0.8893355777
 C          3.6284424578        1.0388026898        0.1682688980
 C          3.5515505284       -0.1006002276       -0.6155333418
 C          2.3755968851       -0.8257477327       -0.6754463458
 H          0.9142358606       -3.0899401828        0.0524239425
 H         -0.9140445754       -3.0900370325       -0.0524492148
 H         -2.3148091469       -1.7043899067        1.3004770047
 H         -4.4105086232       -0.4234046339        1.1850980390
 H         -4.5470442996        1.6040336501       -0.2146979462
 H         -2.5738961250        2.3386911824       -1.5029347603
 H         -0.4795826554        1.0542776448       -1.3920380370
 H          0.4794676717        1.0546258796        1.3916982519
 H          2.5736571796        2.3391177441        1.5024584187
 H          4.5469895381        1.6042009115        0.2147448326
 H          4.4107306154       -0.4236609972       -1.1845608673
 H          2.3151024129       -1.7045919450       -1.3000857005
  26
        -36.04426231
 C         -0.0693472654       -2.5251345018       -0.0278121258
 C          0.0139167903       -1.1956385858       -0.0083213973
 C         -1.2442512394       -0.4108426360       -0.1222654045
 C         -1.9998059592       -0.1289879312        1.0093537948
 C         -3.1813061753        0.5836598780        0.9016929585
 C         -3.6197240593        1.0194447893       -0.3375172621
 C         -2.8723590143        0.7399363508       -1.4697132323
 C         -1.6902751796        0.0286284843       -1.3634171451
 C          1.2643323162       -0.4334731223        0.1169352292
 C          2.5022896282       -1.0574718716        0.2830970590
 C          3.6619108677       -0.3157720044        0.3987990666
 C          3.6168310015        1.0681772477        0.3522617810
 C          2.3969611010        1.7028850386        0.1914917749
 C          1.2355445230        0.9622777323        0.0768897084
 H          0.7857874725       -3.1728880704        0.0426852935
 H         -1.0253100358       -3.0118791963       -0.1225511522
 H         -1.6548235338       -0.4702081776        1.9746444724
 H         -3.7613477455        0.7983823887        1.7869735870
 H         -4.5419446706        1.5746419035       -0.4210506139
 H         -3.2112635744        1.0766547008       -2.4382388002
 H         -1.1041923678       -0.1899375301       -2.2444785541
 H          2.5649914333       -2.1330691054        0.3258779292
 H          4.6082159034       -0.8202580709        0.5270933681
 H          4.5243586519        1.6457319032        0.4420800027
 H          2.3485463452        2.7812106435        0.1556404535
 H          0.2915977425        1.4724857699       -0.0462510290
