! pbe def2-sv(p) def2/J RI DEFGRID1 loosescf d4 GCP(DFT/SV(P)) printgap
%output
    printlevel normal
end
* xyz 0 1
C -1.7772444806 0.8575946116 -0.1650329896
C -1.2905700112 -0.5848278397 -0.0663820583
C 0.0735541185 -0.7553407954 0.6142331655
O 1.1909454221 -0.4720047558 -0.2143342028
C 1.6749369433 0.8532642509 -0.1655564246
H -1.7296694109 1.3440022155 0.8069032284
H -1.1804880159 1.4291641321 -0.8706794654
H -2.809086874 0.8757690586 -0.5077911322
H -1.2300906861 -1.0252052675 -1.0630181914
H -2.0127879205 -1.1613789857 0.5144672682
H 0.1221937869 -0.1494971962 1.5281015358
H 0.1980369243 -1.8081578819 0.8868846219
H 1.8633437045 1.1619338186 0.8683179534
H 0.9842230026 1.5613738186 -0.6301422348
H 2.6112289017 0.8471103666 -0.7197548235
*
