! pbe def2-sv(p) def2/J RI DEFGRID1 loosescf d4 GCP(DFT/SV(P)) printgap
%output
    printlevel normal
end
* xyz 0 1
C 1.9796171173 -1.0002311308 0.2518885712
C 1.2287229784 0.1592888838 0.8986352249
C 0.1692231844 0.8365071208 0.0125603818
H -0.0489046853 1.8116925565 0.4862922072
C -1.1940254418 0.1198639275 -0.1296593009
C -1.1046162292 -1.2444188265 -0.8095952647
C -1.9175360776 0.011923722 1.2103210582
O 0.7574132712 1.0724926549 -1.2563453216
H 2.8448684093 -1.2543188991 0.859781951
H 2.3232755991 -0.7079547429 -0.7364822213
H 1.3582813855 -1.8838653072 0.1576655506
H 0.7572841769 -0.1628519116 1.8262827998
H 1.9607255261 0.9307949235 1.1486474572
H -1.7946912888 0.7728531153 -0.7779462767
H -0.4105082854 -1.2053694279 -1.6452121666
H -0.7706810751 -2.0041443235 -0.1088352754
H -2.0833389925 -1.5377648872 -1.1828175054
H -2.9306696311 -0.3494250699 1.0527549731
H -1.9684765591 0.9810816434 1.7014841476
H -1.4094085035 -0.6851667759 1.8714112009
H 0.1427176716 1.5816148049 -1.8003751574
*
