  19
        -25.47582873
 C          2.1634815605       -1.1953415862       -0.1041119347
 C          1.4084940737        0.1124067452        0.0060931761
 O          1.9609375519        1.1957277106        0.0449262800
 N          0.0652442043        0.0024354821        0.0639673429
 C         -0.7145220143       -1.2151467392       -0.0215003796
 C         -2.1530986673       -0.7536637338        0.2165569915
 C         -2.1470147370        0.6760863211       -0.3214923369
 C         -0.7803366895        1.1838025981        0.1225165074
 H          3.2248883600       -0.9777911496       -0.1792890345
 H          1.8441649759       -1.7478235154       -0.9850568723
 H          1.9864564056       -1.8097315265        0.7761492845
 H         -0.6110203264       -1.6661602189       -1.0170396508
 H         -0.3894849315       -1.9481262675        0.7218977384
 H         -2.8783004240       -1.3932633969       -0.2822841622
 H         -2.3703891609       -0.7461467939        1.2851954504
 H         -2.2105025129        0.6675252251       -1.4102253516
 H         -2.9619301353        1.2787696038        0.0725400315
 H         -0.3656522537        1.9638629141       -0.5183659816
 H         -0.8117061513        1.5672452382        1.1491505659
