! pbe def2-sv(p) def2/J RI DEFGRID1 loosescf d4 GCP(DFT/SV(P)) printgap
%output
    printlevel normal
end
* xyz 0 1
C 0.2160632616 0.4932729628 -0.7166076899
H 0.5372744489 1.1723853109 -1.5159984017
C 1.4147991503 0.288761596 0.254084007
F 2.0550809362 -0.8657918886 0.079702168
F 1.0546066698 0.3552219663 1.5355806456
F 2.3226160136 1.2584478302 0.0681446241
O -0.8343829821 1.1480258043 -0.0618011548
C -1.8164261828 0.4753522451 0.5798443226
F -1.3724930607 -0.5613782619 1.3233614244
F -2.699079441 -0.0772544403 -0.2953192904
Cl -0.2379446456 -1.0695912223 -1.4564401786
H -2.3602913971 1.1837014443 1.2195178242
*
