  13
  -24.1833354000000       0.500000000000000      !mtd2
 C         -0.7309397243       -1.2008842251        0.0000770725
 C          0.6523310028       -1.2080555528        0.0000774365
 C          1.3260534905       -0.0020060720        0.0000746993
 C          0.6540390223        1.2076976609        0.0000777582
 C         -0.7262025913        1.2072726930        0.0000464415
 C         -1.4266624800        0.0031945279        0.0000135318
 O         -2.7840666253        0.0534623267       -0.0001083245
 F          2.6779737662       -0.0045035519       -0.0001291054
 H         -1.2729919250       -2.1368538579       -0.0000348550
 H          1.2046621474       -2.1341213982       -0.0000446735
 H          1.2110674028        2.1308353778        0.0000286096
 H         -1.2827435022        2.1302459423        0.0000472215
 H         -3.1484956412       -0.8399053125       -0.0002159586
  13
  -24.1833354000000       0.500000000000000      !md2
 C         -0.7424383068       -1.1974102143       -0.0000700281
 C          0.6376980256       -1.2163938378       -0.0000864712
 C          1.3259921636       -0.0159010362       -0.0000228326
 C          0.6685610705        1.1991439543       -0.0000828182
 C         -0.7146584308        1.2106063758       -0.0001054509
 C         -1.4265727961        0.0159933182       -0.0000401217
 O         -2.7845477445       -0.0158414909        0.0001360431
 F          2.6777660604       -0.0315834176        0.0001466071
 H         -1.3113114994       -2.1129241979        0.0000982091
 H          1.1822037034       -2.1469482007       -0.0001437645
 H          1.2333677772        2.1176724985       -0.0000504755
 H         -1.2440774340        2.1538096150       -0.0000047495
 H         -3.1366907826        0.8823972367        0.0000365363
