! r2scan-3c def2/J RI DEFGRID2 scfconv6 printgap
%output
    printlevel normal
end
* xyz 0 1
C -1.3596159655 -0.4410292696 -0.3332659796
C 0.007712912 -0.0623971215 0.2510266137
C 1.1384445654 -0.8017072544 -0.4844941873
O 2.3913027687 -0.5309895262 0.0962067646
O 0.2349743629 1.3316492482 0.2151439552
O -2.4155641593 0.3153011365 0.206083269
H -1.5275840232 -1.515260825 -0.1870677116
H -1.3716817371 -0.2309463989 -1.4064905784
H 0.0525712949 -0.3272006432 1.314121794
H 1.141228476 -0.5073036598 -1.5437756554
H 0.9920874412 -1.8806809098 -0.4181911973
H 2.4501819024 0.4262868578 0.2434869545
H -0.0849065192 1.687541743 -0.6260349137
H -2.4530239229 0.1856370368 1.1637971545
*
