  6
        -14.36686515
 C         -0.6624910692        1.0234327310       -0.0000450616
 C          0.6624838725        1.0234382094        0.0000500498
 Cl         1.6117710508       -0.4019045840       -0.0000084301
 Cl        -1.6117684572       -0.4019061266        0.0000077684
 H         -1.2289508371        1.9409319854       -0.0000862217
 H          1.2289453678        1.9409355217        0.0000500563
