! wb97x-v def2-tzvp def2/J RIJCOSX DEFGRID2 scfconv7 GCP(DFT/TZ) printgap
%output
    printlevel normal
end
%cpcm
    smd true
    smdsolvent "water"
end
* xyz 0 1
C -2.7885006172509557 -0.0021245003327809444 -0.30515370878374876
C -2.1084200573948277 -1.2074602728248203 -0.1435851783743915
C -0.7586120831680179 -1.2082968268749725 0.19936655914702686
C -0.06758760030947156 -0.0074029395700928495 0.3882579495288475
C -0.7596149907204235 1.196240593560486 0.22127114048574412
C -2.1093130834723137 1.2006581498445363 -0.12169610055827752
C 1.4034038153363584 -0.009131424090186283 0.7095205812254575
C 2.2295303481342716 0.014577627280464226 -0.5690726322920379
O 3.622125095314793 0.014118299007887318 -0.20310498504342941
H -3.8413820960543354 -0.00011844649539137416 -0.5692130710224045
H -2.630792921756204 -2.1493812608994403 -0.2811057262111524
H -0.23295092684853924 -2.1510762610221876 0.32688461567433374
H -0.2346717554216491 2.1369172557546348 0.36613012494436215
H -2.6324351195012543 2.144516877897113 -0.2419699673882634
H 1.6593080204441064 0.8686986414066193 1.3132502273865252
H 1.6635670603116217 -0.9054920742837591 1.2834339360467422
H 1.9950806937717052 -0.8676643013733584 -1.1818299021159562
H 1.988501647027385 0.9141672489589032 -1.1534334117302874
H 4.134712456993175 0.03302831903826736 -1.0208759200150204
*
