  18
  -22.2208104800000       0.102615067037721      !gc
 C         -1.8129072829       -1.4610414761        0.0001123122
 C         -0.5225713164       -0.6990306084        0.0000175192
 C          0.6891167679       -1.3754762444       -0.0000866560
 C          1.8917433811       -0.6913847686       -0.0001147033
 C          1.8917814541        0.6913231437        0.0001037454
 C          0.6891851503        1.3754481901        0.0001072163
 C         -0.5225327024        0.6990424441        0.0000130478
 C         -1.8128113019        1.4611133556       -0.0001343939
 H         -2.4062588995       -1.2119504762        0.8796148460
 H         -2.4061698539       -1.2124357735       -0.8795838955
 H         -1.6277188060       -2.5322849107        0.0004306870
 H          0.6903718316       -2.4567026434       -0.0000841973
 H          2.8239707375       -1.2370374801       -0.0002265905
 H          2.8240425572        1.2369084495        0.0000983572
 H          0.6903990104        2.4566767304        0.0001247465
 H         -1.6275518818        2.5323154042       -0.0005353262
 H         -2.4061428261        1.2119711380       -0.8796522885
 H         -2.4061680261        1.2126106329        0.8795981134
  18
  -22.2208104800000       0.102615067037721      !mtd5
 C         -1.8129017643       -1.4609853260       -0.0001008105
 C         -0.5225523617       -0.6989993810        0.0000131989
 C          0.6891491311       -1.3754850438        0.0000405544
 C          1.8917465819       -0.6914240910        0.0000607880
 C          1.8917624352        0.6913087163       -0.0000450665
 C          0.6892026866        1.3754563505       -0.0000669756
 C         -0.5225374590        0.6990401775       -0.0000035532
 C         -1.8128653865        1.4610698600        0.0000955656
 H         -1.6277606634       -2.5322137325       -0.0002094201
 H         -2.4063307102       -1.2121613306        0.8793916385
 H         -2.4060364893       -1.2120930723       -0.8797567544
 H          0.6902900893       -2.4567168406        0.0001049527
 H          2.8240517728       -1.2369345959        0.0000812093
 H          2.8240501912        1.2368652684       -0.0000374715
 H          0.6904952102        2.4566949827        0.0000404446
 H         -2.4059442349        1.2124013008        0.8799177015
 H         -1.6276080989        2.5322939378       -0.0001308079
 H         -2.4064298071        1.2120873743       -0.8793264294
  18
  -22.2208104700000       0.102613981176030      !mtd10
 C         -1.8129166869       -1.4609526655        0.0001238143
 C         -0.5225545374       -0.6990147452       -0.0000879175
 C          0.6891433660       -1.3754791480       -0.0001108874
 C          1.8917616810       -0.6914052048       -0.0000027614
 C          1.8917778044        0.6913112878        0.0000959932
 C          0.6891853364        1.3754414444        0.0000229089
 C         -0.5225409831        0.6990347565       -0.0000617525
 C         -1.8128608760        1.4610553678       -0.0000243451
 H         -2.4063071999       -1.2120946143       -0.8794290567
 H         -1.6276418552       -2.5321460180       -0.0001199223
 H         -2.4060778083       -1.2122373458        0.8799270348
 H          0.6903326845       -2.4567109480       -0.0000511192
 H          2.8240254842       -1.2369945625       -0.0000019739
 H          2.8240519349        1.2368840076        0.0001480111
 H          0.6904861453        2.4566719937        0.0000910290
 H         -1.6276173029        2.5322833828       -0.0006849597
 H         -2.4064948349        1.2117288925       -0.8792705520
 H         -2.4058756118        1.2127213550        0.8799271429
  18
  -22.2208104600000       0.102612895325830      !gc
 C         -1.8129124657       -1.4610065196       -0.0002688391
 C         -0.5225731609       -0.6990255251       -0.0000282724
 C          0.6891176224       -1.3754659841        0.0001834913
 C          1.8917632642       -0.6913963511        0.0001710322
 C          1.8917977485        0.6913076234       -0.0001441069
 C          0.6891818532        1.3754382163       -0.0002132124
 C         -0.5225328407        0.6990405861       -0.0000479432
 C         -1.8128546892        1.4610845377        0.0003001836
 H         -2.4062556883       -1.2117283694       -0.8797307194
 H         -1.6277146833       -2.5322490151       -0.0008197685
 H         -2.4061976355       -1.2126124289        0.8794742465
 H          0.6904341596       -2.4566981791        0.0004339601
 H          2.8239723407       -1.2370742662        0.0004724797
 H          2.8240265845        1.2369593912       -0.0002701469
 H          0.6905644516        2.4566695562       -0.0004153388
 H         -2.4062099755        1.2117526180        0.8797665702
 H         -1.6275497650        2.5323144304        0.0011244757
 H         -2.4060955264        1.2129453120       -0.8794677194
  18
  -22.2208104400000       0.102610723660287      !mtd12
 C         -1.8129091565       -1.4610300148       -0.0003788498
 C         -0.5225717335       -0.6990361496       -0.0000679165
 C          0.6891088281       -1.3754778829        0.0002637652
 C          1.8917497879       -0.6913810007        0.0002699899
 C          1.8917983529        0.6913178410       -0.0002411494
 C          0.6891986688        1.3754416897       -0.0003042498
 C         -0.5225232684        0.6990437308       -0.0000215245
 C         -1.8128483704        1.4611031395        0.0004125791
 H         -2.4059419901       -1.2120151874       -0.8801644552
 H         -1.6277502699       -2.5322390264       -0.0005301310
 H         -2.4065260895       -1.2123202144        0.8790288870
 H          0.6904053436       -2.4567111332        0.0008637556
 H          2.8239387664       -1.2371026776        0.0009329199
 H          2.8241096856        1.2368257796       -0.0003607799
 H          0.6905018967        2.4566758708       -0.0004333270
 H         -2.4059304930        1.2133103263       -0.8796557755
 H         -2.4064325649        1.2114316906        0.8795779927
 H         -1.6275880376        2.5323667854        0.0015435801
  18
  -22.2208104300000       0.102609637844557      !mtd9
 C         -1.8129330049       -1.4609632351       -0.0000218672
 C         -0.5225547060       -0.6990145204        0.0000425668
 C          0.6891414323       -1.3754830850       -0.0000108442
 C          1.8917546669       -0.6914034688       -0.0000480757
 C          1.8917806344        0.6913229601        0.0000659837
 C          0.6891945242        1.3754592258       -0.0000260395
 C         -0.5225208614        0.6990377030       -0.0000546374
 C         -1.8128481998        1.4610407183        0.0000220209
 H         -2.4078469396       -1.2097706686        0.8777742957
 H         -2.4046654230       -1.2145264452       -0.8813966573
 H         -1.6277815267       -2.5321849696        0.0032330037
 H          0.6903659010       -2.4567154397        0.0002873854
 H          2.8240285205       -1.2369715894       -0.0000062477
 H          2.8240754470        1.2368572471        0.0000808142
 H          0.6904942217        2.4566913935        0.0001786673
 H         -2.4052884545        1.2136176654        0.8806584551
 H         -1.6276650685        2.5322909215       -0.0018900715
 H         -2.4070660070        1.2107560037       -0.8785515007
  18
  -22.2208104300000       0.102609637844557      !mtd5
 C         -1.8129182505       -1.4609656602        0.0001786614
 C         -0.5225645264       -0.6990003722       -0.0002039531
 C          0.6891548698       -1.3754960931       -0.0001783409
 C          1.8917421531       -0.6914228517        0.0000679296
 C          1.8917732657        0.6913336270        0.0001120738
 C          0.6892162021        1.3754639465       -0.0000389845
 C         -0.5225270483        0.6990292714       -0.0000783898
 C         -1.8128531419        1.4610361286        0.0000035579
 H         -1.6277623546       -2.5322519116       -0.0017275214
 H         -2.4049280419       -1.2135506755        0.8811867469
 H         -2.4076830664       -1.2104700301       -0.8780519149
 H          0.6903101433       -2.4567216233       -0.0000471804
 H          2.8240765885       -1.2369160469        0.0002305585
 H          2.8241252323        1.2367865738        0.0001603830
 H          0.6904236762        2.4566933960       -0.0001129439
 H         -2.4057909343        1.2130886964       -0.8801919827
 H         -2.4066394554        1.2113335329        0.8790899414
 H         -1.6275888182        2.5322703019        0.0011018304
  18
  -22.2208104100000       0.102607466247568      !mtd2
 C         -1.8128934559       -1.4609820498        0.0001864039
 C         -0.5225465135       -0.6990008733       -0.0000148711
 C          0.6891025763       -1.3754971367       -0.0001771045
 C          1.8917335716       -0.6914077940       -0.0000937432
 C          1.8917800132        0.6913140921        0.0001603322
 C          0.6892089017        1.3754660058        0.0000871874
 C         -0.5225083722        0.6990529165        0.0000174808
 C         -1.8128746179        1.4610384244       -0.0001610558
 H         -1.6278521877       -2.5321400019       -0.0004514925
 H         -2.4056319841       -1.2125871995        0.8801541075
 H         -2.4067954945       -1.2116460455       -0.8787121348
 H          0.6904142125       -2.4567318644       -0.0007402648
 H          2.8240292079       -1.2369384817       -0.0003950941
 H          2.8240639666        1.2368551262        0.0005198961
 H          0.6905411236        2.4567026787        0.0006421100
 H         -1.6277026028        2.5322708561        0.0000345152
 H         -2.4056257695        1.2124311388       -0.8801643803
 H         -2.4066422415        1.2119794078        0.8790575651
  18
  -22.2208103900000       0.102605294696924      !mtd12
 C         -1.8128948753       -1.4610014717       -0.0002785820
 C         -0.5225717153       -0.6989951709       -0.0000826357
 C          0.6891211283       -1.3754581665        0.0001849818
 C          1.8917562887       -0.6914187871        0.0002673981
 C          1.8918070470        0.6913019660       -0.0001902109
 C          0.6892361699        1.3754394370       -0.0002492607
 C         -0.5225118082        0.6990568966       -0.0000310241
 C         -1.8129103422        1.4610470425        0.0003590946
 H         -2.4054651132       -1.2137803647        0.8801573838
 H         -2.4071464388       -1.2102102371       -0.8788115437
 H         -1.6278059884       -2.5322390717       -0.0026911938
 H          0.6903570476       -2.4567089251        0.0006322043
 H          2.8239751281       -1.2370695638        0.0008142464
 H          2.8240898907        1.2368715665       -0.0004654558
 H          0.6905586854        2.4566690197       -0.0008620257
 H         -2.4059194892        1.2134122592       -0.8798924837
 H         -2.4065607531        1.2110570559        0.8795025129
 H         -1.6276397366        2.5323349611        0.0018575385
  18
  -22.2190140900000       1.533371720907389E-002 !gc
 C         -1.7966054407       -1.5034372380       -0.0004654874
 C         -0.5324411913       -0.6919243535        0.0008176389
 C          0.6814331211       -1.3701534233        0.0002586617
 C          1.8860206367       -0.6936972855       -0.0002899637
 C          1.8889864699        0.6898976698       -0.0001033245
 C          0.6879948391        1.3740290433        0.0001171139
 C         -0.5300708636        0.7042091971        0.0003467156
 C         -1.8050588181        1.4972934388       -0.0001650069
 H         -2.6854873830       -0.8828927564        0.0278555930
 H         -1.8383756877       -2.1241661973       -0.8953223883
 H         -1.8123593068       -2.1680056475        0.8628865668
 H          0.6740489544       -2.4514510358        0.0005380976
 H          2.8164191850       -1.2424246255       -0.0007435256
 H          2.8219151159        1.2343080661       -0.0004639076
 H          0.6931015042        2.4552794979       -0.0003081033
 H         -1.5876879503        2.5626691313       -0.0034298436
 H         -2.4035990251        1.2686041906       -0.8813938157
 H         -2.4011502085        1.2739916965        0.8842280856
  18
  -22.2190116500000       1.529417669021112E-002 !gc
 C         -1.7965702519       -1.5034806854        0.0001113167
 C         -0.5324568967       -0.6919118679       -0.0003089000
 C          0.6813729310       -1.3701205542       -0.0000520272
 C          1.8860212052       -0.6936759362        0.0001253761
 C          1.8890212169        0.6898715122       -0.0000231103
 C          0.6879668419        1.3740013518       -0.0000242463
 C         -0.5300811887        0.7042245668       -0.0000711922
 C         -1.8050587795        1.4973144073        0.0000719091
 H         -1.8308096388       -2.1369377557        0.8862185521
 H         -2.6856320392       -0.8827135998       -0.0121451471
 H         -1.8194554273       -2.1556565910       -0.8725428884
 H          0.6741184410       -2.4514231261       -0.0003272872
 H          2.8163844345       -1.2424769720        0.0002454407
 H          2.8219302299        1.2343044363        0.0001680480
 H          0.6931073442        2.4552450719        0.0003743395
 H         -2.4008313210        1.2739384651       -0.8844613566
 H         -2.4039168015        1.2688982967        0.8811471877
 H         -1.5875495567        2.5626656264        0.0033593944
  18
  -22.2190115100000       1.529191106743774E-002 !gc
 C         -1.7965764439       -1.5034725913       -0.0001188669
 C         -0.5324521003       -0.6919236194        0.0003242964
 C          0.6813798795       -1.3701283414        0.0000654991
 C          1.8860197605       -0.6936721119       -0.0001834096
 C          1.8890143096        0.6898775716       -0.0000580395
 C          0.6879629441        1.3740054778        0.0001880309
 C         -0.5300793072        0.7042181666        0.0002061373
 C         -1.8050504236        1.4973201156       -0.0002067908
 H         -1.8300187385       -2.1380128717       -0.8854495831
 H         -1.8202690543       -2.1545856514        0.8733410601
 H         -2.6856346187       -0.8826894128        0.0105126887
 H          0.6741258783       -2.4514306484       -0.0002648299
 H          2.8163886923       -1.2424618899       -0.0004959955
 H          2.8219225388        1.2343139696        0.0000664392
 H          0.6930963413        2.4552511991        0.0006105343
 H         -2.4025588277        1.2705606125       -0.8826711870
 H         -2.4021996048        1.2722275746        0.8829424076
 H         -1.5875491323        2.5626486453       -0.0011757869
  18
  -22.2190114400000       1.529077838185454E-002 !gc
 C         -1.7965702148       -1.5034823396        0.0000753053
 C         -0.5324568831       -0.6919165691       -0.0002305191
 C          0.6813708199       -1.3701208613       -0.0000320629
 C          1.8860224263       -0.6936716698        0.0000961119
 C          1.8890215998        0.6898709744       -0.0000341383
 C          0.6879614965        1.3739986949       -0.0000035412
 C         -0.5300826653        0.7042230760       -0.0000334579
 C         -1.8050553043        1.4973211977        0.0000460175
 H         -1.8297273175       -2.1387791620        0.8848929976
 H         -2.6856424596       -0.8826949529       -0.0098378191
 H         -1.8205186492       -2.1538451744       -0.8739098952
 H          0.6741325474       -2.4514230857       -0.0003385269
 H          2.8163844754       -1.2424750776        0.0001513044
 H          2.8219276287        1.2343087989        0.0001515675
 H          0.6931028163        2.4552427427        0.0004061201
 H         -2.4039014612        1.2690161976        0.8811393936
 H         -1.5875277354        2.5626590720        0.0031918643
 H         -2.4008388586        1.2738379612       -0.8844612591
  18
  -22.2190113700000       1.528964578022785E-002 !gc
 C         -1.7965753253       -1.5034752452       -0.0000060827
 C         -0.5324526242       -0.6919254637       -0.0001817432
 C          0.6813761335       -1.3701267639        0.0000278301
 C          1.8860196778       -0.6936693412        0.0001018028
 C          1.8890165397        0.6898763400       -0.0000779531
 C          0.6879596151        1.3740028886       -0.0000308117
 C         -0.5300806651        0.7042169345        0.0000117384
 C         -1.8050486682        1.4973235478        0.0000718248
 H         -1.8294339878       -2.1394123956        0.8843563332
 H         -2.6856400012       -0.8826773736       -0.0091905734
 H         -1.8208317084       -2.1532077508       -0.8744612696
 H          0.6741334546       -2.4514293094       -0.0002492994
 H          2.8163878494       -1.2424617866        0.0001915668
 H          2.8219235016        1.2343134078        0.0000715413
 H          0.6930925728        2.4552479841        0.0003425698
 H         -1.5875312376        2.5626433494        0.0039608099
 H         -2.4004730143        1.2743367961       -0.8848127717
 H         -2.4042770576        1.2684897057        0.8807848951
