  18
        -22.22081048
 C         -1.8129072829       -1.4610414761        0.0001123122
 C         -0.5225713164       -0.6990306084        0.0000175192
 C          0.6891167679       -1.3754762444       -0.0000866560
 C          1.8917433811       -0.6913847686       -0.0001147033
 C          1.8917814541        0.6913231437        0.0001037454
 C          0.6891851503        1.3754481901        0.0001072163
 C         -0.5225327024        0.6990424441        0.0000130478
 C         -1.8128113019        1.4611133556       -0.0001343939
 H         -2.4062588995       -1.2119504762        0.8796148460
 H         -2.4061698539       -1.2124357735       -0.8795838955
 H         -1.6277188060       -2.5322849107        0.0004306870
 H          0.6903718316       -2.4567026434       -0.0000841973
 H          2.8239707375       -1.2370374801       -0.0002265905
 H          2.8240425572        1.2369084495        0.0000983572
 H          0.6903990104        2.4566767304        0.0001247465
 H         -1.6275518818        2.5323154042       -0.0005353262
 H         -2.4061428261        1.2119711380       -0.8796522885
 H         -2.4061680261        1.2126106329        0.8795981134
