! pbe def2-sv(p) def2/J RI DEFGRID1 loosescf d4 GCP(DFT/SV(P)) printgap
%output
    printlevel normal
end
* xyz 0 1
C 2.3831217337 -0.1602993512 -0.6744785663
C 1.5696001066 0.2697093737 0.5408600663
C 0.2671826718 -0.5188425619 0.6924208528
C -0.8251932157 -0.0627654095 -0.2847605551
H -0.4419379328 -0.0946398902 -1.3100044528
C -2.0585999184 -0.9604488909 -0.1796561659
O -1.1631665669 1.2993392763 -0.0852055968
H 2.6297227686 -1.2180918419 -0.6130604127
H 3.3093508483 0.4066760064 -0.7269352266
H 1.8285399095 0.0115910914 -1.5933935606
H 2.1749356049 0.1297955434 1.4388617514
H 1.3286579483 1.331910223 0.4593056936
H 0.4593384599 -1.5804351925 0.5320042835
H -0.1121583525 -0.3955915323 1.7102074985
H -1.8098279076 -1.9733406808 -0.4812329961
H -2.4262858211 -0.9804935683 0.8443727717
H -2.8459931551 -0.5840250385 -0.8280454239
H -1.5524895982 1.3935864193 0.7956932681
*
