! r2scan-3c def2/J RI DEFGRID2 scfconv6 printgap
%output
    printlevel normal
end
* xyz 0 1
C -3.5285561803 -0.5809988051 -1.807449484
C -3.0086598703 -1.5915056151 -0.792542224
C -2.4897978635 -0.9973889178 0.525993985
H -2.0271043554 -1.8230861498 1.0813489364
C -3.5806035544 -0.4030897608 1.4064220189
N -1.3649878505 -0.0725771722 0.2797941995
C -0.1014371427 -0.6721051293 0.2736829575
O 0.02869268 -1.8729036515 0.4478639306
C 1.004627181 0.2286110436 0.0592508833
C 0.8384483401 1.5598278483 -0.1492582569
N -0.4387519423 2.0232302018 -0.1558931737
C -1.574240701 1.2616410222 0.0249418446
O -2.6617739061 1.799376186 -0.0452211132
C 1.9410789142 2.5244991758 -0.3827195085
Br 2.7302815594 -0.5674003713 0.0706260562
H -4.2954232772 0.0531656047 -1.3730752078
H -2.7273395337 0.0589404826 -2.1715102205
H -3.9536471614 -1.1070601592 -2.6582281293
H -3.8066279709 -2.2884443526 -0.5344860017
H -2.196951838 -2.1690897935 -1.2430574355
H -4.1414249729 0.3704490016 0.8941818419
H -4.2567631759 -1.2025229962 1.6947633044
H -3.1454643823 0.0254085338 2.3061748099
H -0.6129220383 3.0080731443 -0.3327237768
H 2.3690446938 2.3612555092 -1.3712420041
H 2.7387119455 2.363720622 0.3396490681
H 1.5861484771 3.5471547038 -0.3141054538
*
