! r2scan-3c def2/J RI DEFGRID2 scfconv6 printgap
%output
    printlevel normal
end
%cpcm
    smd true
    smdsolvent "water"
end
* xyz 0 1
C 2.6353728469 -0.8071135479 -0.1022486319
C 1.985723726 0.5714177531 -0.1491727103
C 0.55684748 0.5825757451 0.3961986599
C -0.4067563069 -0.2053032216 -0.4759301233
S -2.1151543592 -0.0109896784 0.1813983989
H 3.675558583 -0.7407313353 -0.4111345818
H 2.12942572 -1.50233902 -0.7668790261
H 2.6027890918 -1.2080450167 0.9083206115
H 1.9810115924 0.9384424044 -1.1777299599
H 2.5816425364 1.2647244392 0.4474941917
H 0.2053357991 1.6160900646 0.4569947356
H 0.5444657293 0.1699479332 1.4081039675
H -0.4044179013 0.1721008162 -1.4980456558
H -0.1779042522 -1.268997723 -0.4653140156
H -2.7042589699 -0.7786312938 -0.7264335959
*
