! r2scan-3c def2/J RI DEFGRID2 scfconv6 printgap
%output
    printlevel normal
end
%cpcm
    smd true
    smdsolvent "water"
end
* xyz 0 1
C -1.6254265611 1.0485900355 -0.5394581756
C -1.0879227931 0.4846729745 0.7748381925
C -0.0492941455 -0.6438203459 0.6346584934
H -0.0405971925 -1.1961120495 1.5816452313
C -0.3904604958 -1.6219604007 -0.487048879
C 1.3860812632 -0.1116088154 0.4682275531
O 1.6042000264 0.6843214508 -0.6766478651
H -2.2158870227 1.940390433 -0.3405366784
H -0.8256001294 1.3100893125 -1.2255594927
H -2.2670602034 0.3237507334 -1.0329838062
H -1.9347691329 0.10078313 1.3482853264
H -0.6432737943 1.2909479295 1.364308461
H -0.2426427881 -1.1534848446 -1.456198034
H -1.4219409937 -1.9541261227 -0.4044715211
H 0.2581748314 -2.4930328283 -0.4299412804
H 2.0678395876 -0.9600408674 0.3605615705
H 1.6736258633 0.4434777855 1.3713529316
H 1.1844239948 1.5437770691 -0.5391909033
*
