! r2scan-3c def2/J RI DEFGRID2 scfconv6 printgap
%output
    printlevel normal
end
* xyz 0 1
C 2.0591961196 -0.9497218807 0.1725676772
C 1.1892033815 0.0539089063 0.923594823
C 0.167201499 0.812758369 0.0560369128
H -0.0500309927 1.7611139432 0.5806760186
C -1.1985558046 0.1183486757 -0.1540556934
C -1.0870746722 -1.2657874122 -0.7867075966
C -2.0024430729 0.0573003431 1.1428212017
O 0.7850462166 1.1157927046 -1.1837719465
H 1.4882487681 -1.805726709 -0.1692559478
H 2.8503222493 -1.3036043057 0.8295045698
H 2.511113713 -0.4698309526 -0.6908030575
H 0.6605574239 -0.441287549 1.7371990489
H 1.8523195219 0.8007389945 1.365409047
H -1.7501068452 0.7605160483 -0.8542767766
H -0.7255149573 -1.9908162434 -0.0628013363
H -2.0638130447 -1.5937549434 -1.1356460603
H -0.4065758707 -1.238963793 -1.6340123225
H -3.0007706179 -0.3216332205 0.9391675206
H -2.0920728304 1.0451215092 1.5890993299
H -1.5303127245 -0.6047527828 1.8640140281
H 0.1919466095 1.6715647046 -1.7055742341
*
