! r2scan-3c def2/J RI DEFGRID2 scfconv6 printgap
%output
    printlevel normal
end
%cpcm
    smd true
    smdsolvent "water"
end
* xyz 0 1
C -2.7413597498 -1.2539390512 0.0285295178
C -2.4782061714 0.2153769505 0.3365491263
C -1.2380701398 0.7933397225 -0.3503382343
C 0.1055825331 0.3680257667 0.2455478339
C 0.6557575073 -0.9796214545 -0.2252931252
C 2.1285327885 -0.9216797134 0.1761660605
C 2.5420790691 0.5429472197 -0.0391720238
C 1.2301187964 1.3365221321 -0.1548456177
H -2.7588402884 -1.419880431 -1.0461614145
H -1.9770212567 -1.8906137222 0.4629099267
H -3.7034804876 -1.5544574973 0.4375763618
H -3.3446259987 0.7948290876 0.007600355
H -2.3867270573 0.350036797 1.4167141365
H -1.2603698158 0.5369231191 -1.4121502977
H -1.299196113 1.8825711559 -0.2755315778
H 0.0219052669 0.3518069696 1.3373694453
H 0.1517651297 -1.8325938397 0.2235255522
H 0.5617393735 -1.0529532168 -1.310119431
H 2.2276983 -1.1871684551 1.2298733759
H 2.7405724392 -1.6121683768 -0.402373128
H 3.1493676867 0.8997828187 0.7919536152
H 3.134091844 0.6489069385 -0.9477741341
H 1.2334094735 2.2289540314 0.4696882774
H 1.0734932453 1.6527608485 -1.1873981464
*
