  13
        -24.00585733
 C         -1.1812813774       -1.1989517562        0.0000001984
 C          0.2017904271       -1.2032361472       -0.0000042479
 C          0.8874157440       -0.0007344902       -0.0000069040
 C          0.2020817811        1.2046939286       -0.0000028459
 C         -1.1780267404        1.2055275987        0.0000006347
 C         -1.8804187499        0.0029387101        0.0000024966
 O         -3.2371271158        0.0518363703        0.0000019572
 Cl         2.6179340684       -0.0027117633        0.0000027189
 H         -1.7203397635       -2.1368038352        0.0000041131
 H          0.7430342973       -2.1360704703        0.0000042619
 H          0.7466870204        2.1354245857       -0.0000025591
 H         -1.7324280880        2.1299462737       -0.0000030344
 H         -3.6008240253       -0.8419631879       -0.0000023576
