! r2scan-3c def2/J RI DEFGRID2 scfconv6 printgap
%output
    printlevel normal
end
%cpcm
    smd true
    smdsolvent "water"
end
* xyz 0 1
C -1.155952264 -1.0519087971 -1.4597949228
C -1.2860840418 0.0651981415 -0.4254432366
C -1.9586899106 -0.4817044255 0.8346322405
C 0.0257127214 0.8601015307 -0.2101974435
C -0.2165115035 2.0013137241 0.7851093294
C 1.3357826961 0.1265689543 0.1710532901
C 1.2145203729 -0.907844631 1.2868994383
C 2.049094874 -0.4951723133 -1.0319190447
H -0.6608640112 -0.6927084292 -2.358484818
H -0.5970712349 -1.8935563416 -1.0606342563
H -2.1452511622 -1.4117594246 -1.7365660386
H -1.980333776 0.8053013961 -0.8477190534
H -1.4058472088 -1.3110882877 1.261239128
H -2.9526884924 -0.8425343812 0.5754460862
H -2.0713725624 0.2895336594 1.5902245696
H 0.229682298 1.3307575057 -1.1814032128
H -1.152710669 2.5101491181 0.5665727284
H 0.5877159787 2.731319364 0.7227749245
H -0.2545066257 1.6315925131 1.8062077367
H 1.9994773799 0.9183312172 0.5426831812
H 2.2093846203 -1.2011613588 1.6176967058
H 0.6810456318 -0.5033241774 2.1421557985
H 0.7045220444 -1.8020250611 0.9396342366
H 2.1428445411 0.2267563423 -1.8401979828
H 1.5222465247 -1.3660325633 -1.4072309815
H 3.0499059706 -0.8084867772 -0.74060348
*
