! r2scan-3c def2/J RI DEFGRID2 scfconv6 printgap
%output
    printlevel normal
end
* xyz 0 1
C 2.2447865149 -0.9575379775 -0.7239791357
C 1.5896801922 0.3552265464 -0.3174724167
C 0.3493584761 0.1823564645 0.5665783543
H 0.6483666586 -0.3942731474 1.4596458358
C -0.8085984455 -0.578200429 -0.1155043444
C -1.9622724388 -0.7960315691 0.8665250523
C -1.3100605817 0.1506373652 -1.3605946754
O -0.0306705571 1.4892261405 0.967848205
H 1.6084379211 -1.5228101377 -1.3993321083
H 2.4502867266 -1.5684659026 0.1521285132
H 3.1843883807 -0.7571365834 -1.231844938
H 2.2992085044 0.9568746851 0.2548838524
H 1.3153115735 0.9349461876 -1.1986181068
H -0.420894859 -1.5599739096 -0.4014186557
H -2.6943100061 -1.4732138696 0.4335164196
H -1.6023996152 -1.2329145461 1.7960415215
H -2.4667696687 0.14228768 1.086561513
H -2.2316755737 -0.304054566 -1.7151789741
H -0.5782128056 0.106740093 -2.1622141832
H -1.5029352379 1.1953946349 -1.1259990604
H -0.7481074121 1.4225756958 1.611411996
*
