! r2scan-3c def2/J RI DEFGRID2 scfconv6 printgap
%output
    printlevel normal
end
%cpcm
    smd true
    smdsolvent "water"
end
* xyz 0 1
C -2.2270042218 0.6865421657 -0.849894353
C -1.7838968821 0.5347730528 0.6002371131
C -0.8893932804 -0.696516016 0.796016932
C 0.4049947771 -0.5499470389 0.0389334681
O 0.7514901319 -1.251778732 -0.8890143126
O 1.134045868 0.451220462 0.5162214208
C 2.3916704171 0.747637988 -0.0962566898
H -2.7964496903 -0.1836694599 -1.1677084482
H -2.8499484321 1.5693048698 -0.9664321589
H -1.3654818276 0.7823543634 -1.5082375117
H -2.661460195 0.429756235 1.2388477862
H -1.2353603409 1.4232710448 0.9161559321
H -1.392221003 -1.5951576811 0.4392836192
H -0.6499890836 -0.8049876572 1.8541178037
H 3.0995704621 0.9274091101 0.7090405371
H 2.2789549809 1.6414306859 -0.7091451184
H 2.7100431556 -0.091464885 -0.7159873801
*
