  16
        -19.86782709
 C         -2.7878366118       -0.2749650635        0.0110198735
 C         -1.4314369102        0.4113183948       -0.0862836167
 C         -0.2843202465       -0.5829838401        0.0748417274
 C          1.0747693083        0.0670418690        0.0230987447
 O          1.2291211347        1.2728438286        0.0293586051
 C          2.2304328619       -0.8907743843       -0.0473865955
 H         -3.5880946215        0.4502181783       -0.1099953662
 H         -2.9040448474       -0.7557704099        0.9794633806
 H         -2.8894251455       -1.0309280250       -0.7640902219
 H         -1.3448328363        1.1802855929        0.6841779475
 H         -1.3360738512        0.9123644780       -1.0520490865
 H         -0.3665058312       -1.0869116855        1.0414317213
 H         -0.3330589718       -1.3539739632       -0.6960996495
 H          3.1562505410       -0.3830286879        0.2084555837
 H          2.3073182561       -1.2571250789       -1.0694507775
 H          2.0683565714       -1.7416474868        0.6065823672
  16
        -19.86760829
 C         -2.1294898155        0.0423293510        0.7549607520
 C         -1.5403400632        0.1458882689       -0.6471583105
 C         -0.2216816700       -0.6182345594       -0.7592480562
 C          0.9170596023        0.0464924388       -0.0235897111
 O          0.9192923059        1.2274897906        0.2631242171
 C          2.0605428049       -0.8654975240        0.3171142027
 H         -3.0687796442        0.5860321602        0.8137152709
 H         -1.4427937529        0.4686849968        1.4834238877
 H         -2.3150700485       -0.9968487159        1.0178430133
 H         -1.3598227156        1.1958344697       -0.8862222597
 H         -2.2512678037       -0.2530303658       -1.3721592976
 H         -0.3370849860       -1.6410934323       -0.3999788591
 H          0.0845878617       -0.6684178524       -1.8078079220
 H          2.9328932955       -0.2869239534        0.6082247174
 H          2.2953300805       -1.5122648972       -0.5228305734
 H          1.7599959557       -1.4928703509        1.1541555386
  16
        -19.86712609
 C         -2.7393444516       -0.3351921901        0.0041049637
 C         -1.3280213858       -0.0277338609        0.4881794440
 C         -0.3066580184       -0.1620505000       -0.6526763189
 C          1.0666479468        0.1828399439       -0.1340257682
 O          1.4801297001        1.3268089235       -0.1201842623
 C          1.8674962172       -0.9728079402        0.3843655860
 H         -3.4464497921       -0.2368573833        0.8235424735
 H         -2.7971171037       -1.3495756297       -0.3826418645
 H         -3.0305024486        0.3521982569       -0.7862148316
 H         -1.0632925712       -0.7116828045        1.2966752068
 H         -1.2843475338        0.9896169396        0.8830504235
 H         -0.3238265671       -1.1800781506       -1.0390058611
 H         -0.5739955180        0.5384128381       -1.4453111851
 H          1.2518876456       -1.5966957956        1.0261387115
 H          2.7431719013       -0.6208004337        0.9224339617
 H          2.1876117113       -1.5764237577       -0.4627685681
  16
        -19.86706817
 C         -2.0421309343       -0.0187232347        0.7566814417
 C         -1.4256340358       -0.6781144670       -0.4714708738
 C         -0.2563285459        0.1431317176       -1.0256320212
 C          0.9041208669        0.2547655315       -0.0679225776
 O          1.3488108388        1.3342502125        0.2754474230
 C          1.4843229640       -1.0384386715        0.4251925882
 H         -2.8615852073       -0.6202555332        1.1415179652
 H         -2.4271963778        0.9671724116        0.5061289823
 H         -1.3017223099        0.1032027971        1.5449871443
 H         -2.1844782500       -0.7640710364       -1.2507137265
 H         -1.0882887743       -1.6839323359       -0.2222047924
 H          0.1167891327       -0.3303210711       -1.9361709001
 H         -0.5947978940        1.1511306467       -1.2739460769
 H          0.8510395994       -1.4217964243        1.2230772139
 H          2.4780354929       -0.8673443924        0.8304396476
 H          1.5177991392       -1.7764562774       -0.3697152667
  16
        -19.86693770
 C         -2.0881715563        0.4137872441        0.5518397321
 C         -1.4261044710       -0.7654252124       -0.1493630165
 C         -0.2131732780       -0.3322442775       -0.9907754838
 C          0.8973257449        0.1709832174       -0.1021500178
 O          1.0469641513        1.3527383454        0.1441164784
 C          1.7981623239       -0.8878807434        0.4597642861
 H         -2.4672996077        1.1267348714       -0.1767309087
 H         -1.3764150482        0.9333606833        1.1903554669
 H         -2.9180960913        0.0731254687        1.1656734839
 H         -2.1488303852       -1.2428117603       -0.8127316608
 H         -1.1130813107       -1.5024475431        0.5920522392
 H          0.1432286428       -1.1835286351       -1.5695048070
 H         -0.5195271128        0.4693693229       -1.6644400763
 H          2.4581112039       -1.2295599232       -0.3355502772
 H          1.2187490456       -1.7394957945        0.8033244703
 H          2.4012900356       -0.4853973826        1.2688021103
  16
        -19.86687238
 C         -2.7522807735       -0.3642313916       -0.0321320313
 C         -1.3036223024       -0.4634977940        0.4319298659
 C         -0.3707272721        0.2813037211       -0.5279093761
 C          1.0745182621        0.2892667049       -0.0986819027
 O          1.7239506675        1.3184895676       -0.0693444793
 C          1.6659870419       -1.0362231658        0.2782739530
 H         -3.0695315890        0.6747949593       -0.0801473337
 H         -3.4064860472       -0.8907414688        0.6578135864
 H         -2.8676285581       -0.8036567848       -1.0199745414
 H         -1.0183351259       -1.5135881969        0.4894723890
 H         -1.2120251497       -0.0294464911        1.4295825246
 H         -0.4140058427       -0.1953684130       -1.5106297137
 H         -0.6991036097        1.3167003551       -0.6415769088
 H          2.7503417749       -0.9681431074        0.2917087441
 H          1.3413902109       -1.8126445525       -0.4070890014
 H          1.3225534728       -1.2946787382        1.2781224789
  16
        -19.86684482
 C         -2.0239847766        0.3046373907       -0.6788410825
 C         -1.4421597845       -0.7606700213        0.2419463197
 C         -0.2294940328       -0.2402055830        1.0282359045
 C          0.8931575868        0.1953652673        0.1174135654
 O          1.1688735931        1.3688199036       -0.0465403276
 C          1.6469601288       -0.9068903583       -0.5651200138
 H         -1.2855909986        0.6312230103       -1.4087272669
 H         -2.3340790033        1.1753477162       -0.1055530328
 H         -2.8883611867       -0.0837303127       -1.2114166372
 H         -1.1560355246       -1.6357693424       -0.3424614139
 H         -2.2034579707       -1.0729501350        0.9584153145
 H         -0.5347096122        0.6176041748        1.6302562729
 H          0.1337942098       -1.0303055430        1.6855546568
 H          0.9621351128       -1.5181534602       -1.1466015177
 H          2.1103189171       -1.5440659451        0.1838593239
 H          2.4113538048       -0.4919026288       -1.2161416311
  16
        -19.86566483
 C         -2.2113927644        0.6933316393       -0.1231545390
 C         -1.5006713995       -0.5257751344        0.4509266203
 C         -0.2355751611       -0.9040664671       -0.3335870700
 C          0.9204974029        0.0381622146       -0.0859725646
 O          0.8113370791        1.2481244053       -0.1273489013
 C          2.2277205039       -0.6340256618        0.2166394735
 H         -3.0818563373        0.9418075539        0.4790516203
 H         -2.5399030676        0.4990293824       -1.1419175539
 H         -1.5422043114        1.5498295997       -0.1340560948
 H         -2.1810374777       -1.3793191277        0.4360079858
 H         -1.2302472585       -0.3313253687        1.4912094092
 H          0.0663968725       -1.9196421803       -0.0813587550
 H         -0.4631247519       -0.8669290019       -1.4019541441
 H          2.1349575097       -1.1794582171        1.1532459092
 H          3.0236204277        0.1009071519        0.3006621240
 H          2.4607500086       -1.3501138496       -0.5671853232
