  16
  -23.1131950900000       0.166410977335030      !md1
 C         -2.7726206656        0.4031085700        0.0002637468
 O         -1.7901732751       -0.6026413444       -0.0002646629
 C         -0.4777224313       -0.2326311979       -0.0000872576
 C         -0.0194831099        1.0795830183       -0.0001270399
 C          1.3431029485        1.3324266599       -0.0000286456
 C          2.2561196790        0.2954446160        0.0000533564
 C          1.7993239176       -1.0138997282        0.0000721117
 C          0.4462704512       -1.2788352480        0.0000592375
 H         -2.7057480781        1.0324761161       -0.8933853125
 H         -2.7047283280        1.0326202177        0.8937806158
 H         -3.7285984467       -0.1184744932        0.0009127488
 H         -0.7081592994        1.9100566304       -0.0002029038
 H          1.6873866213        2.3565638184        0.0001312612
 H          3.3154066871        0.5027741963        0.0001280434
 H          2.5034624230       -1.8327598936        0.0002359289
 H          0.0723842395       -2.2906358149        0.0001518519
  16
  -23.1131950900000       0.166410977335030      !mtd4
 C         -2.6596192284       -0.8810911632        0.0007464977
 O         -1.8679359814        0.2807722019       -0.0005609674
 C         -0.5110193440        0.1456470955       -0.0002836196
 C          0.2161002758        1.3371079402       -0.0005133965
 C          1.5946322652        1.3125121136       -0.0002258897
 C          2.2730692983        0.1030768611        0.0002132670
 C          1.5551399179       -1.0774232615        0.0003777685
 C          0.1693504563       -1.0663840379        0.0001490374
 H         -2.4834836963       -1.4900506621       -0.8922015617
 H         -3.6919938275       -0.5345273854        0.0005125193
 H         -2.4832215497       -1.4880790747        0.8949824276
 H         -0.3286484295        2.2681148462       -0.0008867220
 H          2.1449035426        2.2417745370       -0.0003307420
 H          3.3522794353        0.0839191282        0.0004176504
 H          2.0729444950       -2.0256342577        0.0006519644
 H         -0.3637135380       -2.0043624950        0.0002338308
  16
  -23.1131950900000       0.166410977335030      !gc
 C         -2.6595984066       -0.8810874919       -0.0003226800
 O         -1.8678940846        0.2808188275        0.0002485521
 C         -0.5110153090        0.1456081381        0.0001457128
 C          0.2160873799        1.3371076641        0.0000456425
 C          1.5946096103        1.3125310803       -0.0001032292
 C          2.2730321117        0.1030851685       -0.0001409408
 C          1.5551339629       -1.0774250429        0.0000134993
 C          0.1693390173       -1.0664261668        0.0001593991
 H         -3.6919593929       -0.5346001376       -0.0006656602
 H         -2.4836366013       -1.4892489096        0.8932058992
 H         -2.4828950088       -1.4888437874       -0.8939774831
 H         -0.3287710402        2.2680402879        0.0000766624
 H          2.1449205176        2.2417732008       -0.0002088566
 H          3.3522433933        0.0839384756       -0.0002849309
 H          2.0729845266       -2.0256109311        0.0000212614
 H         -0.3637071603       -2.0044116563        0.0003019042
  16
  -23.1131950800000       0.166409216391823      !gc
 C         -2.6595351102       -0.8811141365        0.0009998019
 O         -1.8679345359        0.2807723216       -0.0007481437
 C         -0.5110295660        0.1456547778       -0.0004230416
 C          0.2160896520        1.3371160307       -0.0006311094
 C          1.5946350676        1.3125321651       -0.0002583244
 C          2.2730532698        0.1030805215        0.0002899970
 C          1.5551102863       -1.0774308844        0.0004670887
 C          0.1693291667       -1.0663841208        0.0001561157
 H         -2.4824519329       -1.4882343403        0.8949850425
 H         -2.4841893931       -1.4899871988       -0.8921555803
 H         -3.6919610622       -0.5345809830        0.0016034770
 H         -0.3286680170        2.2681162325       -0.0010396448
 H          2.1449041339        2.2417856150       -0.0004844438
 H          3.3522595868        0.0839275447        0.0005241430
 H          2.0729323695       -2.0256480448        0.0008797400
 H         -0.3637717701       -2.0043310236        0.0004068919
  16
  -23.1131950800000       0.166409216391823      !mtd4
 C         -2.7726185710        0.4030840793       -0.0000145291
 O         -1.7901689504       -0.6026313664        0.0000122182
 C         -0.4777426880       -0.2326200196        0.0000219684
 C         -0.0194692696        1.0795825678       -0.0000247320
 C          1.3431138736        1.3324390122       -0.0000253834
 C          2.2561261622        0.2954414603        0.0000318864
 C          1.7993087161       -1.0138996921       -0.0000019055
 C          0.4462677799       -1.2788367370       -0.0000352890
 H         -2.7054528875        1.0322578702        0.8937317049
 H         -3.7285241587       -0.1184296103       -0.0003216098
 H         -2.7050748430        1.0327252641       -0.8933529924
 H         -0.7081143235        1.9100818432       -0.0000689323
 H          1.6873231342        2.3565313571        0.0001085655
 H          3.3153944869        0.5027042246        0.0002919734
 H          2.5034699788       -1.8327080240        0.0001249524
 H          0.0723728197       -2.2906288102       -0.0001357917
  16
  -23.1131950400000       0.166402172805962      !mtd10
 C         -2.7726023276        0.4031793008       -0.0008374936
 O         -1.7902292009       -0.6026544437        0.0005462910
 C         -0.4777520019       -0.2327027075        0.0003665436
 C         -0.0194640776        1.0795288650        0.0004793314
 C          1.3430713496        1.3324397464        0.0000472075
 C          2.2561530252        0.2954615973       -0.0003361323
 C          1.7993527767       -1.0138547035       -0.0002388134
 C          0.4462776891       -1.2788382219       -0.0000050342
 H         -3.7286187906       -0.1183000372       -0.0018214951
 H         -2.7041212231        1.0323843317       -0.8945100950
 H         -2.7062312956        1.0328128865        0.8926863622
 H         -0.7081474562        1.9099912978        0.0009056255
 H          1.6873452821        2.3564840902        0.0007154406
 H          3.3154481999        0.5027921525       -0.0000745328
 H          2.5034202801       -1.8328010633       -0.0003013482
 H          0.0726546555       -2.2907397516       -0.0000226863
  16
  -23.1087238400000       1.466688019332083E-003 !mtd3
 C         -2.7414483356       -0.8247575437        0.0155390314
 O         -1.8550747359        0.2714212254       -0.0124435499
 C         -0.5020122067        0.1155503795       -0.0055225587
 C          0.2158381086        1.3151717625       -0.0074462793
 C          1.5938847514        1.3117411413       -0.0024253936
 C          2.2896784822        0.1124707244        0.0048375807
 C          1.5851710004       -1.0756714894        0.0056401403
 C          0.1994736012       -1.0844266131        0.0000961006
 H         -3.3685299874       -0.7352859846        0.9066144695
 H         -2.2396895966       -1.7896715761        0.0347193987
 H         -3.3765935567       -0.7741307417       -0.8726625264
 H         -0.3413999216        2.2388617147       -0.0131039736
 H          2.1295596801        2.2495011206       -0.0041434312
 H          3.3688724995        0.1064990328        0.0090071228
 H          2.1138603711       -2.0178816876        0.0099473596
 H         -0.3061097778       -2.0381736072       -0.0005818416
  16
  -23.1059724000000       7.977438597019242E-005 !gc
 C         -2.6491218168       -0.1564424778       -0.6383130881
 O         -1.8372275533       -0.2323414714        0.5116210807
 C         -0.4853633387       -0.0766953462        0.2530390927
 C          0.0892329460        1.1872012425        0.2967872967
 C          1.4479207486        1.3336140680        0.0816534613
 C          2.2349409527        0.2256255433       -0.1829206610
 C          1.6614031849       -1.0337679095       -0.2279369218
 C          0.3034621754       -1.1884624785       -0.0138900894
 H         -2.5543552489        0.8183499233       -1.1311089358
 H         -3.6740879778       -0.2932889343       -0.2981275968
 H         -2.3952007955       -0.9420092801       -1.3597342134
 H         -0.5337501793        2.0429788610        0.5106199108
 H          1.8934536648        2.3168244724        0.1211675651
 H          3.2951603820        0.3432213410       -0.3510703416
 H          2.2737473161       -1.9002857605       -0.4302906888
 H         -0.1541455818       -2.1662741666       -0.0398384895
