  6
         -8.22611843
 C          0.7214510584        0.0131763600        0.0000008744
 O         -0.6826917034       -0.0644383762       -0.0000004030
 H          1.0991608461        0.5250038246       -0.8918759728
 H          1.0880210845       -1.0116674201        0.0003099724
 H          1.0991005592        0.5255476743        0.8915851579
 H         -1.0466664793        0.8269896139       -0.0000231798
