  6
         -8.22611843
 C          0.7214510584        0.0131763600        0.0000008744
 O         -0.6826917034       -0.0644383762       -0.0000004030
 H          1.0991608461        0.5250038246       -0.8918759728
 H          1.0880210845       -1.0116674201        0.0003099724
 H          1.0991005592        0.5255476743        0.8915851579
 H         -1.0466664793        0.8269896139       -0.0000231798
  6
         -8.22356353
 C          0.7221961324        0.0667820137        0.0000002933
 O         -0.6888584067       -0.0112147747       -0.0000009905
 H          1.1952639742       -0.9153572421        0.0017673566
 H          1.0492729648        0.6153976310        0.8873959156
 H          1.0496429405        0.6124116653       -0.8891226527
 H         -0.9655525889       -0.9302604672       -0.0000283920
