  6
  -8.22611843000000       0.326055214352779      !md3
 C          0.7214510584        0.0131763600        0.0000008744
 O         -0.6826917034       -0.0644383762       -0.0000004030
 H          1.0991608461        0.5250038246       -0.8918759728
 H          1.0880210845       -1.0116674201        0.0003099724
 H          1.0991005592        0.5255476743        0.8915851579
 H         -1.0466664793        0.8269896139       -0.0000231798
  6
  -8.22611843000000       0.326055214352779      !md3
 C          0.7185264523        0.0664237961        0.0000046237
 O         -0.6856558819       -0.0111931275        0.0000033462
 H          0.9699410056        1.1253920327       -0.0003844204
 H          1.1503480494       -0.4012706890       -0.8915783237
 H          1.1503426634       -0.4006838002        0.8918894202
 H         -0.9491102399       -0.9373207568       -0.0000348938
  6
  -8.22611843000000       0.326055214352779      !md2
 C          0.7185168921        0.0664247622        0.0000033332
 O         -0.6856482888       -0.0111912132        0.0000020557
 H          1.1503376259       -0.4012576778       -0.8915613881
 H          1.1503050361       -0.4006767567        0.8918972332
 H          0.9699648188        1.1253592811       -0.0003703416
 H         -0.9490926086       -0.9373499604       -0.0000378574
  6
  -8.22356353000000       2.183435694166442E-002 !hor
 C          0.7221961324        0.0667820137        0.0000002933
 O         -0.6888584067       -0.0112147747       -0.0000009905
 H          1.1952639742       -0.9153572421        0.0017673566
 H          1.0492729648        0.6153976310        0.8873959156
 H          1.0496429405        0.6124116653       -0.8891226527
 H         -0.9655525889       -0.9302604672       -0.0000283920
