! r2scan-3c def2/J RI DEFGRID2 scfconv6 printgap
%output
    printlevel normal
end
%cpcm
    smd true
    smdsolvent "water"
end
* xyz 0 1
C 1.619682321 -0.1414012925 1.7789176083
C 2.0610916235 -0.3023026133 0.3560131861
C 3.016594702 -1.1606797835 0.0296395198
C 1.4065373785 0.5365085993 -0.7256013094
H 2.2072076714 0.9032391945 -1.3766652003
C 0.4690212943 -0.3292599958 -1.5832578773
C -0.6897586816 -0.8633216903 -0.7496953548
C -1.3697285192 0.2472137053 -0.0029703702
C -0.7552697429 1.4164678969 0.2416205118
C 0.62110307 1.7449541287 -0.2070638089
C -2.7252144382 0.0297080898 0.459722208
O -3.3851836752 -0.9786991346 0.2778818167
H 1.9912964174 0.7986255079 2.18542411
H 0.5357743471 -0.1358677985 1.8615660022
H 2.0160187179 -0.9493890806 2.388500633
H 3.3626482131 -1.2720590591 -0.9844242201
H 3.4926197785 -1.7901895646 0.7619542229
H 0.0749316718 0.2789988258 -2.3995699403
H 1.0236467265 -1.1623029045 -2.0147041891
H -1.4268586479 -1.3665433944 -1.3794834815
H -0.3251298474 -1.6053452081 -0.0332539385
H -1.2856681366 2.1960191009 0.7728438942
H 0.5278855479 2.4806558282 -1.0131841707
H 1.1609384939 2.2458256832 0.597835678
H -3.1638187868 0.8774871909 1.0206944173
*
