! pbe def2-sv(p) def2/J RI DEFGRID1 loosescf d4 GCP(DFT/SV(P)) printgap
%output
    printlevel normal
end
* xyz 0 1
C 2.154725896 -0.2347684664 -1.1367803337
C 1.3371919202 -0.2945329464 0.1572686064
C 1.5613486291 0.9717176188 0.9783570258
O -0.0094919895 -0.6058036414 -0.2146115147
C -1.1299163203 0.1580777281 0.2256786407
C -1.8390202442 0.7412807585 -0.998976214
C -2.0658972699 -0.7595641231 1.0160425167
H 3.21606496 -0.1983866867 -0.9108515014
H 1.9463677833 -1.1163843648 -1.736282198
H 1.8792396298 0.6465292718 -1.7107684878
H 1.6854274078 -1.1556856717 0.7522519542
H 1.2216264875 1.853212831 0.4388046414
H 2.6287109762 1.0682097615 1.1557208697
H 1.0623342359 0.9193239874 1.9432680442
H -0.8126030633 0.9793724689 0.8738252496
H -2.7151255591 1.30403139 -0.6907730714
H -1.166912226 1.3995729157 -1.5438378604
H -2.143527766 -0.0644061545 -1.6615118434
H -2.9436111028 -0.2084361283 1.3401486383
H -1.5521990778 -1.1565537251 1.8881493651
H -2.3747756721 -1.5919956597 0.3896020828
*
