  11
        -17.61980175
 C          1.7608372717        0.6293603725       -0.0039479953
 C          0.4594422299       -0.1271430634        0.0066094753
 O          0.3466150438       -1.3233555206        0.0008607852
 O         -0.5845101518        0.7131099221        0.0095739959
 C         -1.8731361717        0.1148601025       -0.0079061271
 H          1.6191782085        1.6265051374        0.4001801681
 H          2.1064875649        0.7090772564       -1.0330062714
 H          2.5055787775        0.0815905141        0.5659587035
 H         -2.5888349357        0.9321629472        0.0215308865
 H         -1.9990277177       -0.5383382126        0.8578357813
 H         -2.0038934008       -0.4775849656       -0.9156412257
  11
        -17.61970964
 C          1.7571103892        0.6329265945        0.0043381577
 C          0.4605477945       -0.1324300540       -0.0047888631
 O          0.3614027387       -1.3300419191       -0.0000855068
 O         -0.5850964152        0.7047293082       -0.0033403319
 C         -1.8856059086        0.1310622549        0.0009680542
 H          1.5720892568        1.6893888743       -0.1591927153
 H          2.4146502209        0.2360213731       -0.7646437548
 H          2.2417175427        0.4892751131        0.9678027870
 H         -2.2632373462        0.0760601400       -1.0217423248
 H         -2.5208829820        0.7821766908        0.5980566848
 H         -1.8504437158       -0.8729084043        0.4279358986
