  10
  -15.4521547500000       0.153520002654752      !hor
 C         -0.7164327601       -0.6013971181        0.2939321340
 C          0.6955991063       -0.6138940371       -0.2984155830
 O          1.4108157518        0.5396436597        0.0851978740
 O         -1.4367995969        0.5240670843       -0.1357243585
 H         -0.6483268584       -0.6102688640        1.3953400970
 H         -1.2734640685       -1.4836087113       -0.0277385619
 H          0.6396706993       -0.5730603252       -1.3882777052
 H          1.2229392023       -1.5288122893        0.0004268338
 H          1.5378355726        0.5260520493        1.0411397535
 H         -0.8179154385        1.2668093505       -0.1654046108
  10
  -15.4521547400000       0.153518378122464      !md7
 C         -0.7278117285       -0.6114286593       -0.2404729831
 C          0.7081886418       -0.6029220726        0.2912848164
 O          1.4053188013        0.5349872942       -0.1652941745
 O         -1.4300088718        0.5299644485        0.1771212153
 H         -1.2700376008       -1.4804182611        0.1375821786
 H         -0.7066356959       -0.6616508336       -1.3426372866
 H          1.2229966969       -1.5287370776        0.0043328267
 H          0.6988649612       -0.5214728215        1.3803115801
 H          1.4917952654        0.4855329936       -1.1245682002
 H         -0.8112080434        1.2729507124        0.1517191675
  10
  -15.4521547400000       0.153518378122464      !gc
 C         -0.7046961069       -0.6172542010       -0.2686430355
 C          0.7312053337       -0.5976704829        0.2631498141
 O          1.4272720878        0.5310173337       -0.1969272054
 O         -1.4086226061        0.5326019469        0.1454247694
 H         -1.2141883063       -1.5348762167        0.0521890576
 H         -0.6953984503       -0.5761376254       -1.3599267621
 H          1.2782288468       -1.4773086705       -0.0819182404
 H          0.7102136358       -0.6065850741        1.3664986041
 H          0.8044685703        1.2710439921       -0.1996923190
 H         -1.4952727454        0.5180595074        1.1058610273
  10
  -15.4521547300000       0.153516753607656      !md6
 C         -0.6920717202       -0.6047831155        0.3243535217
 C          0.7199760343       -0.6092744452       -0.2680282809
 O          1.4336214857        0.5378141664        0.1130287314
 O         -1.4138678401        0.5274084575       -0.1079169027
 H         -0.6365251270       -0.5172442213        1.4114974938
 H         -1.2140993090       -1.5346402320        0.0648054359
 H          0.6523023629       -0.6658943795       -1.3679876679
 H          1.2821364574       -1.4735593258        0.0911654539
 H          0.8103723158        1.2774745269        0.1105992693
 H         -1.5402876954        0.4722746980       -1.0624449617
  10
  -15.4510695500000       4.869020239591865E-002 !md4
 C         -0.6110628771        0.0111860443        0.4650710593
 C          0.6110935907       -0.0118184235       -0.4651550613
 O          1.8232114614        0.0132478695        0.2449614842
 O         -1.8232398497       -0.0127193728       -0.2449751354
 H         -0.5500835008        0.8916874804        1.1205039963
 H         -0.6194584698       -0.8861712375        1.0912835833
 H          0.6191703383        0.8849631330       -1.0921509478
 H          0.5505757148       -0.8929616603       -1.1198747900
 H          1.8739097363       -0.7681335288        0.8067441986
 H         -1.8740291919        0.7697624311       -0.8052883025
  10
  -15.4510694500000       4.868505029645041E-002 !mtd4
 C         -0.6110386893        0.0100658082        0.4651976939
 C          0.6111072534       -0.0122270376       -0.4649817448
 O          1.8233590534        0.0138080699        0.2448619553
 O         -1.8232221190       -0.0118607356       -0.2450623100
 H         -0.6245317869        0.9409222541        1.0402952507
 H         -0.5457739640       -0.8320937665        1.1686730253
 H          0.5438180778        0.8284699114       -1.1703088231
 H          0.6262942506       -0.9441148599       -1.0384205048
 H          1.8670432285        0.8261077947        0.7613865258
 H         -1.8698405718       -0.8244482476       -0.7610184787
  10
  -15.4508153400000       3.720615171760467E-002 !mtd7
 C         -0.7178152353       -0.5870731986       -0.2871030944
 C          0.6979431168       -0.6182760957        0.2903976138
 O          1.3723357116        0.5301042325       -0.1878286524
 O         -1.4399064249        0.5225070549        0.1744845273
 H         -1.2689080426       -1.4752149038        0.0279144640
 H         -0.6488230757       -0.5742778487       -1.3840073063
 H          1.2068565287       -1.5359267226       -0.0323412337
 H          0.6453411958       -0.6033755251        1.3872842753
 H          2.2676635274        0.5426072121        0.1629080986
 H         -0.8926997477        1.3010159886        0.0108059663
  10
  -15.4508153300000       3.720575800607703E-002 !mtd7
 C         -0.6819172831       -0.6149290647        0.3322790672
 C          0.7084121857       -0.5897968130       -0.3042450836
 O          1.4431439376        0.5325286008        0.1033886247
 O         -1.3818788638        0.5196847723       -0.1418595699
 H         -0.5839093004       -0.5760909720        1.4254211028
 H         -1.1987902982       -1.5416070858        0.0506530092
 H          0.5938827541       -0.6007509787       -1.3974021381
 H          1.2768912346       -1.4685070134        0.0063999108
 H          0.8856340666        1.3050086848       -0.0538272488
 H         -2.2619659205        0.5356628886        0.2453660041
  10
  -15.4508153200000       3.720536429878554E-002 !mtd2
 C         -0.7050109343       -0.5804089282        0.3293907988
 C          0.6854833113       -0.6246002511       -0.3057503419
 O          1.3787937117        0.5333592392        0.1193269235
 O         -1.4461483266        0.5191929584       -0.1258955218
 H         -0.5905141240       -0.5437309124        1.4219425470
 H         -1.2683440614       -1.4749284519        0.0569021907
 H          0.5872575532       -0.6331562800       -1.3995741126
 H          1.2076977428       -1.5354147159        0.0150441032
 H          2.2585534274        0.5381290647       -0.2690796350
 H         -0.8927558014        1.3008143838       -0.0026851343
  10
  -15.4508153100000       3.720497059559028E-002 !mtd3
 C         -0.6943182126       -0.6323681584       -0.2674680977
 C          0.7210142835       -0.5717601288        0.3086653095
 O          1.4372381435        0.5237883830       -0.1938918417
 O         -1.3756358146        0.5286577950        0.1683188914
 H         -1.1978915787       -1.5406805337        0.0883936312
 H         -0.6413413833       -0.6572714074       -1.3641951899
 H          1.2771785697       -1.4679489267        0.0270564536
 H          0.6515484317       -0.5184486461        1.4042818573
 H          0.8859688869        1.3050048606       -0.0593360652
 H         -2.2714712678        0.5222432318       -0.1811970658
  10
  -15.4504107600000       2.424837603210456E-002 !md8
 C         -0.7220416582       -0.6165423166        0.2646994814
 C          0.7255076483       -0.6229537126       -0.2385042320
 O          1.4147028536        0.5602625505        0.0723635633
 O         -1.4178889921        0.5484800246       -0.0958104758
 H         -0.7419703067       -0.6416890553        1.3587698981
 H         -1.2323773532       -1.5158179611       -0.1129436804
 H          0.7456284985       -0.6940436875       -1.3305306151
 H          1.2410286583       -1.5024784165        0.1765217260
 H          1.2453052738        0.7869122974        0.9939885649
 H         -1.2483417298        0.7378389678       -1.0257747480
  10
  -15.4504105900000       2.424401430834874E-002 !mtd9
 C         -0.7333431639       -0.6262525341       -0.2049574055
 C          0.7365629541       -0.6138502567        0.2285752684
 O          1.4086159765        0.5557700955       -0.1614299167
 O         -1.4119830777        0.5534532321        0.1404674595
 H         -1.2245764138       -1.5086306433        0.2330260118
 H         -0.8053576739       -0.6961545222       -1.2948163682
 H          1.2328662844       -1.5095115409       -0.1752613322
 H          0.8086795282       -0.6415232000        1.3202703173
 H          1.1984662945        0.7434128308       -1.0833818801
 H         -1.1949984496        0.7827284485        1.0514705092
  10
  -15.4502890500000       2.131810588610072E-002 !mtd1
 C         -0.6116176039        0.0191175648        0.4635046524
 C          0.6115577351       -0.0027187582       -0.4638668370
 O          1.8234579915        0.0496991708        0.2431322854
 O         -1.8237207722        0.0243181549       -0.2452328465
 H         -0.6065618908        0.9345679695        1.0589685688
 H         -0.5646286363       -0.8431332664        1.1498167265
 H          0.6007112549        0.8782095206       -1.1092453422
 H          0.5701520966       -0.9020358703       -1.1012711915
 H          1.8623483342       -0.6897843775        0.8604553325
 H         -1.8571363311       -0.7481968967       -0.8210636949
  10
  -15.4502890400000       2.131788030017884E-002 !hor
 C         -0.6115870401        0.0044117663        0.4638696254
 C          0.6116150754       -0.0191027393       -0.4633766690
 O          1.8236970352       -0.0245624348        0.2452439262
 O         -1.8234332454       -0.0508437471       -0.2430493590
 H         -0.5709274696        0.9054647984        1.0988272802
 H         -0.6000675012       -0.8747984770        1.1116002662
 H          0.5651801394        0.8425237250       -1.1505311764
 H          0.6058532140       -0.9351381215       -1.0579718647
 H          1.8575508869        0.7480267289        0.8209285028
 H         -1.8621107615        0.6859889557       -0.8635640487
  10
  -15.4499184100000       1.440171673505322E-002 !gc
 C         -0.7119776509       -0.6171592002        0.2984289964
 C          0.7156456830       -0.6251758654       -0.2719954605
 O          1.4383525550        0.5286981945        0.0935414620
 O         -1.4414236172        0.5158643966       -0.1157720953
 H         -0.6690425313       -0.6667225170        1.3936366095
 H         -1.2563304422       -1.4855121033       -0.0764184601
 H          0.6731024499       -0.7214562150       -1.3640795313
 H          1.2650588929       -1.4736024726        0.1393176775
 H          1.0681413296        1.2808769495       -0.3829744750
 H         -1.0758910842        1.2897636674        0.3284024871
  10
  -15.4499183800000       1.440125954762868E-002 !mtd2
 C         -0.7234727488       -0.6281721497       -0.2428407314
 C          0.7270240458       -0.6144487365        0.2661192478
 O          1.4325559887        0.5233975456       -0.1755740406
 O         -1.4355260951        0.5214206325        0.1560027952
 H         -1.2508765741       -1.4801336913        0.1894577520
 H         -0.7270216051       -0.7218181213       -1.3359320018
 H          1.2593706700       -1.4790618442       -0.1338912547
 H          0.7308757681       -0.6668966175        1.3620162276
 H          1.0814248043        1.2942085629        0.2852060698
 H         -1.0889459062        1.2763979160       -0.3335896797
  10
  -15.4488045600000       4.431229535212574E-003 !hor
 C         -0.5953811616        0.0632675342        0.4645257764
 C          0.6021661483       -0.1128132180       -0.4740642170
 O          1.7761724308        0.0465086508        0.2876440562
 O         -1.8241572905       -0.0333820142       -0.2085032511
 H         -0.4954109116        1.0248799753        0.9849004429
 H         -0.5915708035       -0.7338729449        1.2097442824
 H          0.5538509160        0.6432597233       -1.2752385397
 H          0.5585294516       -1.1081150149       -0.9366554775
 H          2.5414039418       -0.1237464934       -0.2711487845
 H         -1.8859468658        0.6796514055       -0.8542144713
  10
  -15.4488045600000       4.431229535212574E-003 !gc
 C         -0.6018787787       -0.0551422319        0.4845694096
 C          0.5945206471        0.0987825465       -0.4594018455
 O          1.8242650452       -0.0128902828        0.2094446907
 O         -1.7763815018        0.0269116472       -0.2885704596
 H         -0.5690224084        0.7361760507        1.2456832754
 H         -0.5415657763       -1.0299370295        0.9964098578
 H          0.5783067275        1.0947758273       -0.9049737488
 H          0.5046768833       -0.6425730692       -1.2642819068
 H          1.8969410758       -0.8960990772        0.5886819129
 H         -2.5417538499       -0.0049731579        0.2946044457
  10
  -15.4488045300000       4.431088864323394E-003 !mtd3
 C         -0.6015600555       -0.0901686999        0.4796659809
 C          0.5950881336        0.0410089464       -0.4673550670
 O          1.8243099172       -0.0097779094        0.2098221778
 O         -1.7763299264        0.0189821179       -0.2896703482
 H         -0.5582379188        0.7097478317        1.2373669258
 H         -0.5515849570       -1.0578187611        0.9970514159
 H          0.4888366261        0.9714327946       -1.0405308590
 H          0.5966511098       -0.7965027594       -1.1669338522
 H          1.8805266309        0.7375557461        0.8160889461
 H         -2.5407006777       -0.1246926714        0.2777595162
  10
  -15.4488045200000       4.431041975013822E-003 !mtd10
 C         -0.5951708587        0.1206906875        0.4532522810
 C          0.6022632499       -0.0795634729       -0.4805664233
 O          1.7762019108        0.0554055065        0.2859191192
 O         -1.8241917868       -0.0362711637       -0.2079083638
 H         -0.5850057003        1.1405304019        0.8413612386
 H         -0.5010010696       -0.5731515549        1.2989512826
 H          0.5637277437        0.6659784368       -1.2863248626
 H          0.5486708637       -1.0828209638       -0.9349160504
 H          2.5418208699       -0.0046347362       -0.2946332342
 H         -1.8909406457       -0.9397471814       -0.5372820254
  10
  -15.4474007900000       1.003220093769429E-003 !mtd2
 C         -0.5852113157        0.0130247967        0.4888087321
 C          0.5852358437       -0.0115223008       -0.4888964646
 O          1.7801260977        0.0125893905        0.2588090962
 O         -1.7801471999       -0.0139001163       -0.2587412001
 H         -0.5181075458        0.9226221813        1.1000456500
 H         -0.5109742239       -0.8577512303        1.1534057699
 H          0.5123685596        0.8605516007       -1.1519413461
 H          0.5167981477       -0.9199166304       -1.1017743602
 H          2.5263251068       -0.0011163069       -0.3490666381
 H         -2.5263673645       -0.0014881867        0.3492986378
  10
  -15.4459287800000       2.113037793703502E-004 !md5
 C         -0.6995569354       -0.5897181266       -0.2633791029
 C          0.7052256416       -0.5241887978        0.3393660494
 O          1.4972231737        0.5102645487       -0.1766613855
 O         -1.4479891133        0.5134466146        0.1863531974
 H         -1.1698498282       -1.5338170922        0.0490369293
 H         -0.6255495186       -0.5877854031       -1.3633155879
 H          1.1925857592       -1.4998963997        0.1846361273
 H          0.6244984094       -0.3289612562        1.4099528499
 H          1.4582643993        0.4893762254       -1.1396247646
 H         -2.3290436323        0.4849669347       -0.2000588948
  10
  -15.4459287500000       2.112970714599850E-004 !mtd1
 C         -0.6909141625       -0.5339892601        0.3531630506
 C          0.6932775575       -0.5814003762       -0.2968792763
 O          1.4507241665        0.5182016130        0.1468077422
 O         -1.5047166775        0.5052175731       -0.1173110348
 H         -0.5754303317       -0.3577753460        1.4238853633
 H         -1.1783759167       -1.5094611214        0.1970052473
 H          0.5824070013       -0.5606459748       -1.3935093548
 H          1.1786214711       -1.5280423002       -0.0169483565
 H          2.3190827676        0.4999111721       -0.2680529848
 H         -1.4973923570        0.5022006874       -1.0813361941
  10
  -15.4459287500000       2.112970714599850E-004 !hor
 C         -0.7024721097       -0.5411545206       -0.3191628674
 C          0.7030763554       -0.5763152266        0.2840754214
 O          1.4440752620        0.5152676873       -0.2049251425
 O         -1.4993072415        0.5083079003        0.1577825829
 H         -1.1846352346       -1.5126629858       -0.1264236975
 H         -0.6240027519       -0.3867948957       -1.3965735341
 H          1.1793050035       -1.5277213315        0.0046364829
 H          0.6299366546       -0.5360070440        1.3833269089
 H          2.3258211067        0.5052968432        0.1808451671
 H         -1.4568732967        0.5263821977        1.1206615182
  10
  -15.4459287500000       2.112970714599850E-004 !mtd5
 C         -0.6897682486       -0.5721433802        0.3215942007
 C          0.6942405289       -0.5448221293       -0.3299377228
 O          1.5014711230        0.5187117482        0.0952957473
 O         -1.4537755621        0.5029377049       -0.1687449613
 H         -0.5793441121       -0.5036793708        1.4163138106
 H         -1.1693720659       -1.5326728499        0.0826224408
 H          0.5778605278       -0.4154648022       -1.4071931176
 H          1.1876939343       -1.5096129778       -0.1320341293
 H          1.4945321973        0.5567062370        1.0585389786
 H         -2.3217851210        0.4977830708        0.2471130637
  10
  -15.4448748000000       6.926783186058118E-005 !gc
 C         -0.6391116983       -0.3415243749       -0.4448868069
 C          0.6542434600       -0.4309565398        0.3846574558
 O          1.6311784867        0.3825091976       -0.2229484174
 O         -1.6779743488        0.3491584428        0.2001674981
 H         -0.9708974370       -1.3472481324       -0.7353740684
 H         -0.4164004748        0.2314925932       -1.3467873764
 H          1.0057440331       -1.4722249840        0.4323769269
 H          0.4482640151       -0.0868747351        1.4091322578
 H          2.4256722871        0.3928580071        0.3208531022
 H         -1.9298681598       -0.1269470677        0.9991679220
  10
  -15.4446537600000       5.482121334865705E-005 !gc
 C         -0.6518281895       -0.4922395500        0.4059224807
 C          0.6548555631       -0.5055884038       -0.3840088757
 O          1.5258536307        0.4552686414        0.1686305317
 O         -1.5285413360        0.4382528013       -0.1882314058
 H         -0.4192095391       -0.2153313256        1.4407047892
 H         -1.1002654491       -1.4965378238        0.3940037700
 H          0.4206955881       -0.2758211338       -1.4299312687
 H          1.1093699902       -1.5056746060       -0.3281337681
 H          2.2635668938        0.5982622285       -0.4323449566
 H         -2.2675696402        0.6023202255        0.4057043269
  10
  -15.4446536400000       5.481425240765027E-005 !mtd10
 C         -0.6591664167       -0.5064510509       -0.3740092834
 C          0.6621356032       -0.4893466445        0.3911916536
 O          1.5233080033        0.4468471747       -0.2165438991
 O         -1.5259743307        0.4449956654        0.2011593581
 H         -1.1059611069       -1.5098811157       -0.3162552060
 H         -0.4461833583       -0.2682627938       -1.4225864532
 H          1.1149248173       -1.4914910735        0.3680529339
 H          0.4476474545       -0.2163924092        1.4309408630
 H          2.2736893743        0.6109875126        0.3630000367
 H         -2.2771752826        0.5847092740       -0.3836978850
  10
  -15.4444823900000       4.572907792307885E-005 !mtd2
 C         -0.6289715362       -0.3994014999        0.4432067195
 C          0.6314564388       -0.4149451554       -0.4249675005
 O          1.6189235594        0.3740243733        0.2016680024
 O         -1.6211926198        0.3546317195       -0.2180207372
 H         -0.3637972136        0.0530819996        1.4062487680
 H         -0.9865946752       -1.4235732289        0.6176067048
 H          0.3633921931       -0.0075115693       -1.4072740225
 H          0.9953408182       -1.4437430375       -0.5537239982
 H          2.3667706356        0.4772490243       -0.3955234650
 H         -2.3687049324        0.4822658221        0.3748950888
