  10
        -15.45215475
 C         -0.7164327601       -0.6013971181        0.2939321340
 C          0.6955991063       -0.6138940371       -0.2984155830
 O          1.4108157518        0.5396436597        0.0851978740
 O         -1.4367995969        0.5240670843       -0.1357243585
 H         -0.6483268584       -0.6102688640        1.3953400970
 H         -1.2734640685       -1.4836087113       -0.0277385619
 H          0.6396706993       -0.5730603252       -1.3882777052
 H          1.2229392023       -1.5288122893        0.0004268338
 H          1.5378355726        0.5260520493        1.0411397535
 H         -0.8179154385        1.2668093505       -0.1654046108
