  21
        -22.10567111
 C          3.0255704644       -1.0234797556       -0.1245243594
 C          1.6622362403       -0.5141284673        0.3261920375
 C          1.3582211838        0.8707249688       -0.2390329098
 C         -0.0181470389        1.3810738117        0.2003957545
 C         -1.1230206771        0.5359742300       -0.3489117583
 C         -2.0118900397       -0.1165746694        0.3804303673
 C         -3.1118242882       -0.9619133175       -0.1711616642
 H          3.2238218682       -2.0087162524        0.2912182302
 H          3.0668798201       -1.0946676210       -1.2094404614
 H          3.8132972406       -0.3479453014        0.2031346502
 H          1.6328064203       -0.4708214349        1.4174529412
 H          0.8853534578       -1.2102252860        0.0028348089
 H          2.1252299649        1.5735683662        0.0951064678
 H          1.3960962763        0.8314581442       -1.3303402854
 H         -0.1424881804        2.4067603952       -0.1607222110
 H         -0.0710293948        1.3978262307        1.2909634050
 H         -1.1607508532        0.4712553305       -1.4296216038
 H         -1.9724895224       -0.0540125368        1.4610116153
 H         -4.0805516719       -0.5777936270        0.1484725668
 H         -3.0249785336       -1.9834595514        0.1991705393
 H         -3.0831432564       -0.9790747107       -1.2579457670
