! pbe def2-sv(p) def2/J RI DEFGRID1 loosescf d4 GCP(DFT/SV(P)) printgap
%output
    printlevel normal
end
* xyz 0 1
C -2.4365974742 1.0503612986 -0.2479601334
C -1.8022078405 -0.0767349667 0.5653346913
C -0.4428303631 -0.4636887322 0.0396908321
O -0.1036760136 -1.602811586 -0.2108271355
O 0.3482508727 0.5885073195 -0.1152111226
C 1.689560272 0.3770448024 -0.5835428066
C 2.6362422673 0.1097739613 0.5766503467
H -2.5876467154 0.7375650049 -1.2780898751
H -3.3996172685 1.3121130299 0.1800961294
H -1.7957294067 1.9271390105 -0.2401331699
H -2.4290471973 -0.9683735497 0.5579927948
H -1.6683699841 0.2506720918 1.5981623792
H 1.6879404157 -0.4654213056 -1.2819267857
H 1.9495187337 1.2999033693 -1.1029825765
H 2.5838337079 0.9220995741 1.2965488423
H 2.3660544539 -0.8206634805 1.0712769432
H 3.6510956304 0.0278246745 0.2016244663
*
