! r2scan-3c def2/J RI DEFGRID2 scfconv6 printgap
%output
    printlevel normal
end
%cpcm
    smd true
    smdsolvent "water"
end
* xyz 0 1
C 2.1235913947 0.5599240798 -0.9658843726
C 1.6125672184 -0.6273628893 -0.1564724301
C 0.2951442808 -0.3856503856 0.6041095471
H 0.2502629816 -1.1608104435 1.3905898104
C -0.987815328 -0.5607839634 -0.2441910559
C -2.2133562334 -0.6352152118 0.6716008113
C -1.1831205586 0.5516767909 -1.272998908
O 0.3706625235 0.8855089857 1.2221463259
H 2.115947811 1.4534996534 -0.3481517956
H 1.5162263642 0.7412616237 -1.8459103187
H 3.143940331 0.3665934973 -1.2884232347
H 1.4855330284 -1.4993281911 -0.7993791998
H 2.3711009472 -0.869934065 0.5911100816
H -0.8931867349 -1.5211963542 -0.761316627
H -3.0903766737 -0.918611086 0.0950397025
H -2.0692322775 -1.3750323788 1.4565728762
H -2.413225253 0.3312200409 1.1292572699
H -0.949871525 1.516148542 -0.8279855227
H -2.2150609513 0.5661153739 -1.6156264839
H -0.5445374408 0.4042544303 -2.1381515116
H -0.3848937435 0.9869504341 1.814672969
*
