! r2scan-3c def2/J RI DEFGRID2 scfconv6 printgap
%output
    printlevel normal
end
%cpcm
    smd true
    smdsolvent "water"
end
* xyz 0 1
C -1.9432894125 1.4694006252 0.0798402315
C -1.4824597193 0.0912501671 -0.3816979164
C -0.1579494291 -0.3598507289 0.2464028002
H -0.1830173117 -0.1467460489 1.3207557745
C 0.0326817235 -1.8640170746 0.0460669232
C 1.020379667 0.4191180758 -0.356123282
O 2.2345237892 0.248161578 0.344432749
H -2.0341364898 1.4957936467 1.1633019347
H -1.2445070526 2.2442668204 -0.2238528255
H -2.9137529408 1.7016676514 -0.3517693171
H -1.3812238556 0.0841300759 -1.4693233292
H -2.2525130116 -0.6361888928 -0.1169677998
H -0.8052996991 -2.4086478484 0.4738498786
H 0.9393025558 -2.2144525615 0.5333467754
H 0.0899916211 -2.0997567426 -1.0148204487
H 0.8250526705 1.4920339448 -0.3090085042
H 1.1476594105 0.1376997971 -1.4108666659
H 2.4988645228 -0.6802235338 0.2935758004
*
