! r2scan-3c def2/J RI DEFGRID2 scfconv6 printgap
%output
    printlevel normal
end
%cpcm
    smd true
    smdsolvent "water"
end
* xyz 0 1
C 2.4633240037 -0.0798835378 -0.905016393
C 1.2602949346 -0.2710152752 0.0196613456
H 1.1266987726 -1.3393082396 0.2197941483
C -0.0117057936 0.3047458437 -0.6169321541
C -1.2744750163 0.0580969564 0.2179076608
C -2.3891599483 1.0075446123 -0.2182784411
C -1.7479988864 -1.3886854303 0.0961329148
O 1.5014664149 0.2909491714 1.2983016872
H 2.5876546897 0.9723846902 -1.1526528123
H 3.3665826333 -0.434100863 -0.4144030495
H 2.3200973987 -0.6402505094 -1.8238143457
H 0.128658889 1.3818036296 -0.7415335138
H -0.1370527261 -0.1330041583 -1.6082078444
H -1.0300761487 0.2572804614 1.2674759355
H -2.0894462312 2.0447363437 -0.0874052401
H -3.2867128724 0.83461412 0.3705230332
H -2.6302671913 0.8476909874 -1.2671278598
H -2.6370763362 -1.5462650699 0.7020702238
H -1.9910817659 -1.6214534384 -0.9386397871
H -0.9812646497 -2.0800140955 0.4356139281
H 1.6743428299 1.2370260996 1.1904299806
*
