  13
        -28.05368341
 C         -1.8202311789       -1.3479212936       -0.0000008931
 C         -0.4878877767       -1.7039358534        0.0000005381
 C          0.5016075783       -0.7306327155        0.0000027270
 C          0.1419469323        0.6122489838        0.0000043014
 C         -1.1955053938        0.9751611069        0.0000018374
 C         -2.1838155981       -0.0025986381       -0.0000009152
 O         -3.5004395888        0.3084032243       -0.0000002027
 Cl         1.3489157290        1.8405902466       -0.0000007966
 Cl         2.1634953854       -1.1911488545       -0.0000011135
 H         -2.5955102137       -2.0960757275       -0.0000003130
 H         -0.2030208588       -2.7436962474        0.0000004949
 H         -1.4584940697        2.0230458094       -0.0000001621
 H         -3.6192225985        1.2663770828       -0.0000201329
