! r2scan-3c def2/J RI DEFGRID2 scfconv6 printgap
%output
    printlevel normal
end
%cpcm
    smd true
    smdsolvent "water"
end
* xyz 0 1
C 1.8361112897 -0.8331837654 0.8614871505
C 1.1792398726 0.4144686958 0.2747831438
H 0.8404965098 1.0664178429 1.0951986944
C -0.0063189114 0.0797920573 -0.6364972065
C -1.2431058915 -0.4957224609 0.0596580136
C -1.9106823962 0.5278745001 0.9757956978
C -2.2397414492 -0.9713373209 -0.9972693602
O 2.0962272509 1.1440365981 -0.5318777707
H 1.1269505417 -1.3782947273 1.4761259951
H 2.1817154011 -1.4802686763 0.0586613506
H 2.6868218931 -0.5594817091 1.4820084119
H -0.2815413875 0.9991495599 -1.1587824846
H 0.3492180674 -0.626408495 -1.3900250228
H -0.9450473955 -1.3612034633 0.6598246619
H -1.252436715 0.8174757789 1.790317244
H -2.817557649 0.1100013099 1.4065904576
H -2.1768030869 1.4199252865 0.4131139998
H -1.7917330742 -1.7295847236 -1.6348260264
H -3.1216128954 -1.3970844308 -0.5247179525
H -2.5526160028 -0.1382344002 -1.6226305769
H 2.8943591349 1.3281926647 -0.0185952293
*
