  8
        -10.63876043
 C         -2.5570495925       -0.4437439075        0.0000003631
 C         -1.5603737843        0.6918881759       -0.0000005734
 I          0.4830985097       -0.0270653741       -0.0000001328
 H         -3.5670091004       -0.0344541516        0.0000008319
 H         -2.4392486417       -1.0686077747       -0.8829565964
 H         -2.4392356364       -1.0686036666        0.8829577560
 H         -1.6572845861        1.3111704602        0.8879484181
 H         -1.6573199072        1.3111915945       -0.8879311797
