  8
  -10.6387604300000       0.333335684881350      !mtd12
 C         -2.5570495925       -0.4437439075        0.0000003631
 C         -1.5603737843        0.6918881759       -0.0000005734
 I          0.4830985097       -0.0270653741       -0.0000001328
 H         -3.5670091004       -0.0344541516        0.0000008319
 H         -2.4392486417       -1.0686077747       -0.8829565964
 H         -2.4392356364       -1.0686036666        0.8829577560
 H         -1.6572845861        1.3111704602        0.8879484181
 H         -1.6573199072        1.3111915945       -0.8879311797
  8
  -10.6387604200000       0.333332157559325      !mtd8
 C         -2.5570492266       -0.4437392013        0.0000017059
 C         -1.5603790732        0.6918813970        0.0000007695
 I          0.4830978257       -0.0270650334        0.0000012100
 H         -2.4391258122       -1.0687336159        0.8828874760
 H         -3.5669964074       -0.0344331903        0.0000943765
 H         -2.4392774365       -1.0684692145       -0.8830631474
 H         -1.6573351140        1.3112078629        0.8879285725
 H         -1.6572183181        1.3111064222       -0.8880291336
  8
  -10.6387604200000       0.333332157559325      !mtd4
 C         -2.5570406775       -0.4437391710        0.0000007541
 C         -1.5603579600        0.6918615764       -0.0000001824
 I          0.4830960331       -0.0270638922        0.0000002582
 H         -2.4391874546       -1.0687315745       -0.8828553321
 H         -2.4393852370       -1.0684218063        0.8830640268
 H         -3.5669497140       -0.0343716294       -0.0001848958
 H         -1.6572559925        1.3112001164        0.8879103870
 H         -1.6573024573        1.3110952991       -0.8879735056
