! pbe def2-sv(p) def2/J RI DEFGRID1 loosescf d4 GCP(DFT/SV(P)) printgap
%output
    printlevel normal
end
* xyz 0 1
C -1.2099750746 0.1813131606 -0.4799575053
C -0.0470721038 0.4925519873 0.4799568605
C 0.9088721994 -0.7165629122 0.5673204308
O 1.7199815329 -0.8287318104 -0.5811377298
O 0.6313595214 1.6646877177 0.0858042032
O -2.0674140989 -0.8186698643 0.0135258071
H -0.8032830897 -0.2119578577 -1.4162527637
H -1.7604500126 1.1074117954 -0.6898893308
H -0.4396465776 0.7038580484 1.4798654614
H 0.3087790012 -1.6274649974 0.6163640017
H 1.5251785652 -0.6430397811 1.4692834077
H 2.4171636183 -0.1591831869 -0.5340773192
H 0.932274337 1.5513171159 -0.8284530183
H -2.5379978042 -0.4865373083 0.7908195512
*
