! pbe def2-sv(p) def2/J RI DEFGRID1 loosescf d4 GCP(DFT/SV(P)) printgap
%output
    printlevel normal
end
* xyz 0 1
C -4.0804480573 0.5176588194 0.9488236535
C -3.4473408529 0.5193109275 -0.4347785942
O -2.0206651697 0.6427548284 -0.352862235
C -1.3024089806 -0.4711599995 -0.1977084979
O -1.804425523 -1.5826505302 -0.1504088029
C 0.142284236 -0.2152340996 -0.1034357865
C 0.668322426 1.0775962443 -0.1569878809
C 2.0263517093 1.2766454932 -0.0635360411
C 2.8907962003 0.1886483229 0.0857430687
C 2.3679459135 -1.1035774581 0.1397494688
C 1.0075475435 -1.2992895979 0.0460472584
O 4.2105368398 0.4401155388 0.1724931891
H -3.7542627846 -0.358395356 1.5051795544
H -3.7897788343 1.4115049701 1.4941729183
H -5.1606996433 0.4910858534 0.8500917201
H -3.7647019017 1.3864254736 -1.0151940478
H -3.6891566359 -0.404980196 -0.9689562417
H 0.0006982036 1.9159070204 -0.2721068899
H 2.4504934597 2.2669119055 -0.1028169031
H 3.0269879876 -1.9508065658 0.2549817897
H 0.5857207831 -2.2921691414 0.0859913888
H 4.7222295881 -0.3783698365 0.2743658527
*
