  12
        -23.98066304
 C         -2.4657602228        0.6925377525        0.0000695702
 C         -2.4657809241       -0.6923679752       -0.0001196700
 C         -1.2693984833       -1.3870953492       -0.0000978150
 C         -0.0672781117       -0.6959910849        0.0000625766
 C         -0.0672526147        0.6959402727        0.0000192359
 C         -1.2692771874        1.3871458695        0.0001490576
 Cl         1.4205731279        1.5662436988       -0.0000726089
 Cl         1.4204485363       -1.5663098538        0.0000500579
 H         -3.3976062228        1.2362569092        0.0001074640
 H         -3.3976781901       -1.2360168020       -0.0002241863
 H         -1.2567651627       -2.4654924675       -0.0002553487
 H         -1.2565309492        2.4655596382        0.0001767390
