! pbe def2-sv(p) def2/J RI DEFGRID1 loosescf d4 GCP(DFT/SV(P)) printgap
%output
    printlevel normal
end
* xyz 0 1
C -2.4328454288 0.1027132508 1.0038534195
C -1.7827742792 0.5582759855 -0.3050817545
C -0.4415108554 -0.1116563666 -0.4595356723
O -0.2824746649 -1.2909528298 -0.697942876
O 0.5553753414 0.7464262972 -0.2884120079
C 1.905623433 0.2559324854 -0.3491153294
C 2.3798279766 -0.2021653192 1.0215053696
H -2.5186359138 -0.9812313914 1.0185609065
H -1.8339735107 0.4164818608 1.8551264779
H -3.4239564933 0.5365958458 1.0936559124
H -1.639824057 1.6375111641 -0.3087126532
H -2.4105357225 0.2608825691 -1.1452841329
H 1.9444487115 -0.5686963305 -1.0673171126
H 2.4915641626 1.1017492381 -0.7100356841
H 1.7826240671 -1.0463122687 1.3592730963
H 3.4189173372 -0.5083861808 0.95894152
H 2.2865945882 0.6081604042 1.7394676771
*
