  23
        -30.28144373
 C         -1.9278161308        1.7959929732        0.2337394781
 C         -2.6188423296        0.4431630999        0.1170073861
 C         -1.8033570585       -0.5362088817       -0.7321639108
 C         -0.5043253174       -0.8806798968       -0.0386186747
 O         -0.4164440426       -1.3461882390        1.0672626620
 O          0.5438183292       -0.6062718547       -0.8212476771
 C          1.8429573793       -0.8557430013       -0.2848311530
 C          2.3165398079        0.2943265559        0.6014496893
 C          2.4384962520        1.5972535044       -0.1790106589
 H         -2.5360590553        2.4847458152        0.8152129366
 H         -0.9650837371        1.6902077809        0.7285940974
 H         -1.7637520980        2.2291486208       -0.7511044434
 H         -3.6036574122        0.5717043616       -0.3362125657
 H         -2.7531834570        0.0131749391        1.1110195541
 H         -1.5814896943       -0.1131649996       -1.7118564786
 H         -2.3666253584       -1.4627464062       -0.8601624749
 H          2.4934711031       -0.9725938565       -1.1541297339
 H          1.8148449980       -1.7863731293        0.2916717086
 H          1.6071160556        0.4135516241        1.4225444239
 H          3.2823914735        0.0192403737        1.0281052923
 H          1.4875063874        1.8519309115       -0.6409616785
 H          2.7315443088        2.4095368727        0.4814333031
 H          3.1858928723        1.5022161476       -0.9637425057
