  23
        -23.15798875
 C         -3.2944120458        0.4273129957        0.0437421377
 C         -1.9961758830       -0.2471492722       -0.3840199617
 C         -0.7845561190        0.3994186757        0.2847673189
 C          0.5640605628       -0.1445138218       -0.2045337557
 H          0.5742330401       -0.1023223117       -1.3001340790
 C          0.7627058402       -1.5951579865        0.2283816381
 C          1.6970440227        0.7480691151        0.3196444508
 C          3.0556943714        0.4439577154       -0.3017014926
 H         -4.1487080658       -0.0463195498       -0.4347549339
 H         -3.2876994036        1.4801021364       -0.2308702530
 H         -3.4225781381        0.3570063448        1.1218614253
 H         -2.0465305860       -1.3057950379       -0.1251995869
 H         -1.8903981612       -0.1734842348       -1.4690648462
 H         -0.8198547957        1.4740533655        0.0867195660
 H         -0.8540213855        0.2638027676        1.3668345988
 H          0.7575861789       -1.6692222251        1.3141568015
 H         -0.0285733711       -2.2278371709       -0.1643659544
 H          1.7088690408       -1.9824775135       -0.1394321579
 H          1.7621085632        0.6423148325        1.4050854169
 H          1.4461892759        1.7900992102        0.1057709913
 H          2.9972960362        0.4931910219       -1.3871115416
 H          3.4081719219       -0.5446714364       -0.0202522711
 H          3.7919434244        1.1709661241        0.0342521010
