  5
  -14.8698550300000        1.00000000000000      !md1
 C          0.0000229682        0.0000615538        0.5687873757
 Br         1.5354820635       -1.0232437297       -0.0354706326
 Br         0.1184394383        1.8413396164       -0.0354734303
 Br        -1.6539251010       -0.8181054649       -0.0354694214
 H          0.0000116247        0.0000258113        1.6580592173
