! r2scan-3c def2/J RI DEFGRID2 scfconv6 printgap
%output
    printlevel normal
end
%cpcm
    smd true
    smdsolvent "water"
end
* xyz 0 1
C 2.1652256378 -0.4026401055 1.2005170098
C 1.321591822 -0.5303205142 -0.0634790128
C 0.2917162555 0.6063261562 -0.2155171681
H 0.5577956803 1.4124149588 0.488689221
C -1.1657012529 0.2019275621 0.0849699233
C -1.6783494702 -0.8645803016 -0.881274095
C -1.3455780025 -0.2389221646 1.5339842654
O 0.2912185644 1.1438770686 -1.5316988944
H 2.7172659278 0.5346914749 1.2037081048
H 2.8795654406 -1.2204958005 1.2559241043
H 1.5389426954 -0.4327297448 2.0878169137
H 1.9793947807 -0.5146297937 -0.9354079614
H 0.8169498637 -1.4952539747 -0.0665786048
H -1.757885898 1.1092887158 -0.0822933647
H -2.7537464591 -0.9770388582 -0.7700222304
H -1.4613094057 -0.5676899017 -1.9038694919
H -1.214596834 -1.828869863 -0.6899176634
H -0.9901159504 0.5284753407 2.2176884009
H -0.8019753684 -1.1597824285 1.7277233169
H -2.3988972413 -0.4171748288 1.7347788448
H 1.1647709879 1.5072905296 -1.7265181808
*
