  23
        -26.73454219
 C         -5.5287815744       -0.9327822810        0.1830724769
 C         -4.4824286262        0.0284293715       -0.3670457014
 C         -3.1093804499       -0.2099970604        0.2563430590
 C         -2.0554730395        0.7489697250       -0.2913895698
 C         -0.6842814933        0.5036850023        0.3326070450
 C          0.3719162690        1.4557022615       -0.2228747776
 C          1.7369833114        1.2472273897        0.4049524590
 Br         2.4881305363       -0.4989468341       -0.0575542534
 H         -6.4981954632       -0.7462238807       -0.2732161368
 H         -5.2451811165       -1.9628303083       -0.0221034349
 H         -5.6275377038       -0.8138871422        1.2600485005
 H         -4.7946469745        1.0567342606       -0.1698535148
 H         -4.4120350708       -0.0932573609       -1.4503473276
 H         -2.7980655028       -1.2383402936        0.0589464555
 H         -3.1802541099       -0.0889569219        1.3400483841
 H         -2.3656143302        1.7784623515       -0.0941159909
 H         -1.9861347464        0.6272064099       -1.3749827860
 H         -0.3818055240       -0.5275030224        0.1360094776
 H         -0.7521350694        0.6301809167        1.4165619266
 H          0.4437710048        1.3308420138       -1.3061303246
 H          0.0720286311        2.4894889862       -0.0259276266
 H          2.4594286584        1.9819219259        0.0514262966
 H          1.6871043325        1.2729388761        1.4930079177
