! pbe def2-sv(p) def2/J RI DEFGRID1 loosescf d4 GCP(DFT/SV(P)) printgap
%output
    printlevel normal
end
* xyz 0 1
C 2.3288621009 -0.5181702883 0.5784625452
C 1.4881250734 -0.1592678653 -0.6415071271
C 0.5832834301 1.0518038787 -0.4125642472
C -0.5613706685 0.7872836141 0.5537982238
S -1.7071228738 -0.519068399 -0.0279196804
H 1.7015595216 -0.8344483975 1.4083726252
H 2.9218315197 0.3358557816 0.8989551671
H 3.0043874153 -1.3358832803 0.3397916908
H 0.8730094748 -1.0170285873 -0.9232224853
H 2.1538508019 0.0608775051 -1.4782492378
H 0.1688530918 1.373141707 -1.3710248162
H 1.175696235 1.8770329498 -0.0100546843
H -0.1996063673 0.4234135749 1.5139279007
H -1.1539962414 1.6864598924 0.7181183015
H -2.0830595743 0.1009287192 -1.1401423704
*
