! r2scan-3c def2/J RI DEFGRID2 scfconv6 printgap
%output
    printlevel normal
end
* xyz 0 1
C 0.9753570234 1.4974256628 0.0833624211
C 0.9626882888 0.0673617624 -0.4400153537
C 1.3892514472 -0.9437253518 0.6159431151
O -0.3417450325 -0.2747863682 -0.994674647
C -1.4140783489 -0.2949120981 -0.2525775423
O -1.5211551874 -0.0568289254 0.9236619422
H 1.9892860513 1.7669064125 0.3609177844
H 0.6245024729 2.1820582072 -0.6849583814
H 0.3337161398 1.5875812237 0.9564589361
H 1.6080008897 -0.0151093153 -1.3203314155
H 0.7498016913 -0.870079721 1.4921975649
H 2.4145046858 -0.7424029851 0.909198857
H 1.3267242536 -1.9531701833 0.2169411835
H -2.2741798783 -0.5783751519 -0.883202984
*
