! pbe def2-sv(p) def2/J RI DEFGRID1 loosescf d4 GCP(DFT/SV(P)) printgap
%output
    printlevel normal
end
* xyz 0 1
C -3.4477408076 -0.5977539064 -0.1515902503
C -2.0686679958 -0.2841895091 0.4149396744
C -1.4033463329 0.867687731 -0.3351088619
C -0.0447973943 1.2328199998 0.2276730413
Br 1.2740649051 -0.2164592327 -0.0273495692
H -4.0997308639 0.2689659062 -0.0717508305
H -3.3744950172 -0.8779901857 -1.1997672828
H -3.9015716597 -1.4214866838 0.3926825376
H -1.4383559554 -1.1737903432 0.3442281995
H -2.159457105 -0.0231573644 1.4720378529
H -1.3072675976 0.6090543321 -1.3919711467
H -2.0323642048 1.7587314768 -0.2636975494
H -0.081587943 1.4011333543 1.3025397743
H 0.3849627708 2.0975856463 -0.27407504
*
