! pbe def2-sv(p) def2/J RI DEFGRID1 loosescf d4 GCP(DFT/SV(P)) printgap
%output
    printlevel normal
end
* xyz 0 1
C -3.2863395526 0.7455025796 0.4349247698
C -2.2568754752 1.5195805772 -0.0751682649
C -1.0901922647 0.9198107066 -0.5133473332
C -0.9390916631 -0.4597796793 -0.4413964999
C -1.9719360697 -1.2291136092 0.0749248236
C -3.142536168 -0.6292781492 0.507586611
C 0.3444910202 -1.1021107453 -0.913555971
N 1.4925460429 -0.4821215501 -0.2998309931
C 1.8322024835 -0.5540753615 1.0201868352
C 2.9408038588 0.2276927568 1.1684419967
N 3.2841491036 0.780682446 -0.0271941559
C 2.3935310242 0.3384201891 -0.8780837154
H -4.1968993176 1.2138759056 0.7759686603
H -2.3628997743 2.5922599903 -0.1329406927
H -0.2865557768 1.5256182466 -0.907591175
H -1.8630676996 -2.3019112799 0.1369099933
H -3.9409661506 -1.236548096 0.9060478888
H 0.340017613 -2.1681507026 -0.6700679074
H 0.4432885416 -0.9889569887 -1.9968724089
H 1.2724950172 -1.1366601419 1.7214190262
H 3.5145846437 0.4286172949 2.0507677479
H 2.3796488421 0.5844193004 -1.9211900116
*
