  26
        -39.43994307
 C         -1.4347320903        2.9056821594        0.1272201633
 C          0.0349269979        2.5822976618       -0.0758206938
 O          0.4093669949        1.3772814214        0.5775630623
 P         -0.0000008013        0.0000957961       -0.1133058263
 O         -0.0001185594        0.0001832777       -1.5802284063
 O          0.9882214796       -1.0430891835        0.5772563652
 C          2.2188063303       -1.3212575663       -0.0765361834
 C          3.2342442479       -0.2108956244        0.1277161482
 O         -1.3972878391       -0.3342938288        0.5776785307
 C         -2.2536970821       -1.2607409983       -0.0761084815
 C         -1.7997290636       -2.6953650055        0.1275736803
 H         -1.6692602600        2.9244617974        1.1883944859
 H         -1.6643463691        3.8739368591       -0.3104073100
 H         -2.0442631851        2.1428021629       -0.3507865842
 H          0.6716201556        3.3571582946        0.3610510064
 H          0.2515971282        2.4877472136       -1.1453172960
 H          2.5710851411       -2.2607401445        0.3592781951
 H          2.0284271971       -1.4603686699       -1.1461616484
 H          3.3657640789       -0.0167744101        1.1890610847
 H          4.1882221584       -0.4972959973       -0.3077677978
 H          2.8801907133        0.6985182734       -0.3514640134
 H         -3.2433016400       -1.0962336052        0.3600922197
 H         -2.2793504577       -1.0259839719       -1.1456603363
 H         -2.5240856020       -3.3781546131       -0.3092952865
 H         -0.8345819654       -2.8427482269       -0.3507144808
 H         -1.6984298469       -2.9072363142        1.1888434260
