! pbe def2-sv(p) def2/J RI DEFGRID1 loosescf d4 GCP(DFT/SV(P)) printgap
%output
    printlevel normal
end
* xyz 0 1
C -1.7583611423 0.9209228048 -0.3831071152
C -1.0386529402 0.2339362527 0.77178941
C 0.1422092268 -0.6382977726 0.3273422122
C 1.20511997 0.1089864268 -0.4883408946
C 1.8569984685 1.2503608002 0.2820391125
O -0.3996231042 -1.721070224 -0.4154405248
H -2.6737132625 1.385025074 -0.0250045287
H -1.1377567588 1.6916861268 -0.8319008935
H -2.0151391332 0.1872969226 -1.1431331069
H -0.6829130993 0.9716405566 1.4907702719
H -1.7418259931 -0.4259433464 1.2840064736
H 0.6213720654 -1.0379173954 1.239127094
H 1.9779281436 -0.6102807771 -0.77384031
H 0.7499221085 0.484043555 -1.4056528726
H 2.2550764106 0.8907273573 1.2283767491
H 2.6745055535 1.6702822592 -0.2984018405
H 1.1429849668 2.0427154726 0.4872800549
H 0.3192766805 -2.2839480881 -0.7312188325
*
