  17
        -29.92826021
 C          2.4386255275       -0.2956197707        0.5611976404
 O          1.1506460270       -0.8677660824        0.4059786196
 P          0.0488389057        0.0172313651       -0.3432326514
 O          0.4648319660        0.7332520621       -1.5414142753
 O         -1.1116851895       -1.0353615581       -0.5869315074
 C         -1.5950964392       -1.8210741698        0.4930099824
 O         -0.4566710788        0.9754987254        0.8606961760
 C         -1.0065320522        2.2368675010        0.5241616896
 H          2.7199558459        0.2504533570       -0.3407590960
 H          3.1309117430       -1.1191569132        0.7328618307
 H          2.4503913953        0.3849030388        1.4144352704
 H         -2.5356039860       -2.2579924604        0.1586861434
 H         -1.7599350227       -1.2030592409        1.3765085113
 H         -0.8813780115       -2.6085652843        0.7348924672
 H         -0.6841402176        2.9473391390        1.2857491857
 H         -2.0965879206        2.1785015880        0.5121297842
 H         -0.6500085743        2.5514861122       -0.4576663641
