! pbe def2-sv(p) def2/J RI DEFGRID1 loosescf d4 GCP(DFT/SV(P)) printgap
%output
    printlevel normal
end
* xyz 0 1
C -1.3543853786 -1.2798470184 0.6666594731
C -1.080624714 -0.3285577534 -0.4966734511
C -2.3866456268 0.3757643767 -0.8787168731
C 0.0393839379 0.7118666635 -0.2661873484
C -0.2858846343 1.6974320658 0.8577378491
C 1.4768202106 0.1551620522 -0.1038846408
C 1.8298848363 -0.3738224277 1.2865522645
C 1.8121047008 -0.8983553859 -1.159808116
H -0.5343695462 -1.9760892359 0.8132580926
H -1.5235501697 -0.7359326509 1.5915966518
H -2.2477440129 -1.8635126704 0.4519230301
H -0.7816960847 -0.9330239075 -1.3591813056
H -2.2157658582 1.1203401894 -1.65317825
H -2.8306703894 0.8659033889 -0.0163201331
H -3.1031730224 -0.3498559823 -1.2577732128
H 0.0711343783 1.2951231565 -1.1973098352
H -1.1655250254 2.2842917622 0.6091225016
H 0.5456810469 2.3851084363 0.9973923747
H -0.4688024387 1.1858995548 1.797804697
H 2.1373653182 1.0142240707 -0.2842224431
H 2.8772650728 -0.6701598183 1.2987955338
H 1.6907572393 0.3904863098 2.0449583514
H 1.2342323573 -1.2396037708 1.5541511748
H 1.5416313047 -0.5488862639 -2.1538178995
H 1.2893026786 -1.830585943 -0.9624049325
H 2.8802986474 -1.1044786248 -1.1507864165
*
