  11
  -14.0795271500000       0.111114638461156      !md2
 C         -1.7222040056       -1.2630738669       -0.1394012230
 C         -1.0953322743       -0.0000126310        0.4160308556
 C         -1.7223491940        1.2630073251       -0.1394031771
 Br         0.8392375344        0.0000143087       -0.0186616010
 H         -1.2317648059       -2.1494072621        0.2578548981
 H         -2.7756331633       -1.2972137473        0.1352782297
 H         -1.6457837162       -1.2829967603       -1.2250465105
 H         -1.1248912045       -0.0000670758        1.5078535805
 H         -1.2319094785        2.1493490299        0.2578614419
 H         -2.7757005575        1.2971288949        0.1354116434
 H         -1.6459784696        1.2830160467       -1.2250723841
  11
  -14.0795271500000       0.111114638461156      !mtd6
 C         -1.7222822266       -1.2630565288       -0.1394136609
 C         -1.0952847749       -0.0000510241        0.4160340356
 C         -1.7223470761        1.2629163308       -0.1394182877
 Br         0.8392417442        0.0000348366       -0.0186561622
 H         -1.6464880326       -1.2826968776       -1.2251141627
 H         -1.2313165322       -2.1493484555        0.2573286590
 H         -2.7754949698       -1.2976163508        0.1359189350
 H         -1.1248756726        0.0000053801        1.5078811314
 H         -1.2316680236        2.1492755241        0.2575655432
 H         -2.7756594545        1.2972491592        0.1355395089
 H         -1.6461515903        1.2826486222       -1.2251194984
  11
  -14.0795271300000       0.111112286867310      !mtd7
 C         -1.7223276091       -1.2630368134       -0.1394147001
 C         -1.0953254210       -0.0000393051        0.4160478313
 C         -1.7224124699        1.2629141176       -0.1394178821
 Br         0.8392686064        0.0000295494       -0.0186541412
 H         -1.6464214624       -1.2826323888       -1.2251856437
 H         -1.2313623978       -2.1494454065        0.2572993347
 H         -2.7755204032       -1.2974737254        0.1356623032
 H         -1.1248556718       -0.0001285856        1.5079013132
 H         -1.6459710819        1.2829111351       -1.2250354183
 H         -1.2320843790        2.1493281134        0.2578654842
 H         -2.7757639695        1.2970287935        0.1351756715
  11
  -14.0795271200000       0.111111111088946      !mtd12
 C         -1.7220439509       -1.2632222411       -0.1393682654
 C         -1.0953590648       -0.0000019418        0.4160089795
 C         -1.7222022182        1.2631675428       -0.1393684201
 Br         0.8391804832        0.0000113365       -0.0186668399
 H         -1.2319793736       -2.1495625493        0.2584533042
 H         -2.7756027952       -1.2971897338        0.1346149562
 H         -1.6448817296       -1.2835241200       -1.2249804338
 H         -1.1249468214       -0.0000069862        1.5078425513
 H         -2.7757020975        1.2971416411        0.1347816121
 H         -1.6452661791        1.2833699727       -1.2249868367
 H         -1.2320990936        2.1495480114        0.2582848231
  11
  -14.0795271200000       0.111111111088946      !gc
 C         -1.7223344737       -1.2632670767       -0.1393922079
 C         -1.0952589458       -0.0003135193        0.4161063288
 C         -1.7219916896        1.2627751435       -0.1394341757
 Br         0.8391761506        0.0001424162       -0.0186682685
 H         -2.7757068978       -1.2974182152        0.1353390179
 H         -1.6459079376       -1.2832163123       -1.2250816901
 H         -1.2318693020       -2.1496259261        0.2578562558
 H         -1.1246251124       -0.0002854160        1.5079549331
 H         -1.6448906853        1.2830444300       -1.2250744447
 H         -1.2318326084        2.1490499483        0.2583923826
 H         -2.7755418872        1.2967595222        0.1346456006
  11
  -14.0795271100000       0.111109935323232      !mtd8
 C         -1.7220455219       -1.2629733909       -0.1394173498
 C         -1.0953066445        0.0001381907        0.4160766073
 C         -1.7224346821        1.2631247017       -0.1393999631
 Br         0.8392178589       -0.0000473712       -0.0186638634
 H         -1.2320946183       -2.1492743611        0.2587093290
 H         -2.7757463394       -1.2968471549        0.1343231208
 H         -1.6445249434       -1.2833855298       -1.2250358969
 H         -1.1250664911        0.0000218882        1.5078876628
 H         -1.6453737793        1.2834264675       -1.2250741276
 H         -1.2325462454        2.1495362552        0.2583955210
 H         -2.7759244547        1.2968279634        0.1347233111
  11
  -14.0795271000000       0.111108759569752      !mtd6
 C         -1.7222818278       -1.2630045302       -0.1394099740
 C         -1.0953008914        0.0000710958        0.4159065479
 C         -1.7225236026        1.2630086219       -0.1393946529
 Br         0.8392854327       -0.0000148461       -0.0186439648
 H         -2.7757285853       -1.2969492033        0.1350963691
 H         -1.6456238526       -1.2831413295       -1.2250813535
 H         -1.2319891107       -2.1493185584        0.2581734765
 H         -1.1250419325        0.0000292488        1.5076910164
 H         -2.7758383897        1.2970297601        0.1353098665
 H         -1.6462250285        1.2829838930       -1.2249099476
 H         -1.2323799495        2.1496471562        0.2579473683
  11
  -14.0795271000000       0.111108759569752      !gc
 C         -1.7222864851       -1.2629407505       -0.1394103719
 C         -1.0953126129        0.0001558664        0.4158572928
 C         -1.7226767654        1.2630833757       -0.1393862997
 Br         0.8393110241       -0.0000503889       -0.0186332678
 H         -2.7757345529       -1.2970439453        0.1350543546
 H         -1.6455891848       -1.2830318023       -1.2250625182
 H         -1.2319260588       -2.1492534967        0.2580834878
 H         -1.1249278491        0.0001255551        1.5076821972
 H         -1.2330099462        2.1495300752        0.2586659965
 H         -2.7763181167        1.2965586621        0.1344342769
 H         -1.6453295656        1.2835525869       -1.2249868633
  11
  -14.0795271000000       0.111108759569752      !mtd10
 C         -1.7224306657       -1.2629969823       -0.1394262651
 C         -1.0952970338       -0.0000440234        0.4160172632
 C         -1.7224814275        1.2628412240       -0.1394268107
 Br         0.8392999764        0.0000385648       -0.0186445097
 H         -1.6469035200       -1.2824615446       -1.2251805627
 H         -1.2313153995       -2.1494216066        0.2569207506
 H         -2.7755600800       -1.2976109849        0.1361795034
 H         -1.1248406219       -0.0000073457        1.5078041040
 H         -2.7756028272        1.2976537421        0.1362361405
 H         -1.6471509702        1.2819076961       -1.2252290197
 H         -1.2313813107        2.1492634830        0.2567970601
