  29
        -53.54219487
 C         -2.9515749721        0.6909559643       -2.0348246113
 C         -3.4069122058       -0.0003070372       -0.7556518088
 C         -2.6061438957        0.4623229594        0.4704276827
 H         -2.7101218593        1.5467195646        0.5567165954
 C         -3.1452929282       -0.1803064680        1.7505082016
 C         -1.1418510379        0.1493652466        0.2979430647
 C         -0.6953848609       -1.1484706005        0.2023195154
 C          0.6610264489       -1.4363768142        0.0356121944
 C          1.5926339445       -0.4241831339       -0.0384147468
 C          1.1636283624        0.8974707492        0.0559016194
 C         -0.2058958701        1.2110143656        0.2252776480
 O         -0.6579182527        2.4504471908        0.3193981852
 N          2.1622471426        1.9190367309       -0.0261171337
 O          3.3135277631        1.5909646830       -0.1681255704
 O          1.7937965680        3.0886642889        0.0531061651
 N          1.0865836121       -2.8118257461       -0.0607495277
 O          2.2689290194       -3.0226055286       -0.2076470663
 O          0.2291359885       -3.6647826804        0.0118423378
 H         -3.5806671573        0.3926416278       -2.8695151680
 H         -3.0133289659        1.7714431212       -1.9273779766
 H         -1.9228321744        0.4278847292       -2.2728362340
 H         -4.4600762746        0.2246420756       -0.5796566449
 H         -3.3127591933       -1.0813871221       -0.8708630158
 H         -4.1775469626        0.1213100077        1.9070960033
 H         -3.1121884068       -1.2648228552        1.6897461636
 H         -2.5608039751        0.1359217438        2.6111592063
 H         -1.3875934396       -1.9750606574        0.2518917096
 H          2.6426380396       -0.6439325216       -0.1680946502
 H          0.0990317221        3.0850184380        0.2510081362
  29
        -53.54088656
 C         -3.0763868849        0.0797369175        2.0239363449
 C         -3.2853644314        0.8533550277        0.7277930070
 C         -2.6533510550        0.1444963726       -0.4791647523
 H         -3.0975780588       -0.8536627908       -0.5503451938
 C         -2.9573174008        0.8930569552       -1.7797898083
 C         -1.1677478710       -0.0422180230       -0.2983694721
 C         -0.6400665625       -1.3126025310       -0.2460465070
 C          0.7300083172       -1.5302677456       -0.0804690518
 C          1.5991882710       -0.4690808452        0.0361313343
 C          1.0911764967        0.8269250612       -0.0133364741
 C         -0.2941105517        1.0696851305       -0.1805970284
 O         -0.8027407119        2.2882011713       -0.2294057349
 N          2.0311524846        1.8986255087        0.1119269085
 O          3.1981906767        1.6296795287        0.2490734202
 O          1.6010679481        3.0496487047        0.0724487416
 N          1.2347660857       -2.8812628479       -0.0310408885
 O          2.4272749469       -3.0267551181        0.1136919471
 O          0.4297015449       -3.7799288609       -0.1384879072
 H         -3.5778929708        0.5828193875        2.8466878652
 H         -3.4821818596       -0.9262126391        1.9407523476
 H         -2.0184724126        0.0013313308        2.2663679836
 H         -4.3551150669        0.9539491555        0.5369295177
 H         -2.8692231152        1.8556018210        0.8230498207
 H         -2.4864969777        0.3936359393       -2.6236099016
 H         -4.0308804805        0.9136961129       -1.9470400143
 H         -2.5969752674        1.9157501560       -1.7304526863
 H         -1.2840564482       -2.1754930625       -0.3314358839
 H          2.6598944304       -0.6300566047        0.1646638070
 H         -0.0776963047        2.9566323893       -0.1334338840
  29
        -53.54076363
 C         -4.4787190578        1.0482289023       -1.2289652531
 C         -3.0479115695        0.5308050320       -1.1612223120
 C         -2.5177039892        0.4305965032        0.2814801385
 H         -2.6121808475        1.4182376738        0.7424296280
 C         -3.3078421727       -0.5780926365        1.1126852293
 C         -1.0492565919        0.0977500703        0.2207957739
 C         -0.5862691975       -1.1971684374        0.2023426061
 C          0.7808285965       -1.4736581766        0.1135392381
 C          1.7055933303       -0.4555342189        0.0437909452
 C          1.2590489682        0.8640693350        0.0560565450
 C         -0.1199012124        1.1657516947        0.1370220200
 O         -0.5942298748        2.4006438696        0.1426417388
 N          2.2486763743        1.8944987250       -0.0175765666
 O          3.4097183844        1.5768001246       -0.0825069889
 O          1.8624995557        3.0611402031       -0.0103139368
 N          1.2244894768       -2.8467597690        0.0961837002
 O          0.3729639209       -3.7067845962        0.1518415946
 O          2.4154623199       -3.0488965502        0.0266852920
 H         -4.5605568438        2.0082162352       -0.7246629745
 H         -4.7755604035        1.1805207167       -2.2664952738
 H         -5.1711135250        0.3511602836       -0.7657247326
 H         -2.9883816352       -0.4535923960       -1.6306736345
 H         -2.4008308899        1.2086141783       -1.7218920934
 H         -3.4463248291       -1.5123042199        0.5745815817
 H         -2.7944485883       -0.7850748012        2.0487498960
 H         -4.2885320157       -0.1757050638        1.3483429899
 H         -1.2690322283       -2.0303373150        0.2578418551
 H          2.7630325210       -0.6680315734       -0.0207979111
 H          0.1567252354        3.0439879626        0.0923172682
  29
        -53.54073274
 C         -3.1487856420       -0.1438821871       -1.8208639548
 C         -3.1936144349        0.9463725194       -0.7575058854
 C         -2.5621760502        0.5445087751        0.5921378036
 H         -2.5765448088        1.4402112199        1.2226074201
 C         -3.3657443419       -0.5431603540        1.2993570272
 C         -1.1160142717        0.1781025018        0.3868939410
 C         -0.6806748478       -1.1215587803        0.2725041930
 C          0.6683643374       -1.4143541204        0.0519351864
 C          1.6036129089       -0.4091325375       -0.0528795245
 C          1.1860233580        0.9151490154        0.0618643474
 C         -0.1743631590        1.2335362436        0.2775968476
 O         -0.6206469524        2.4739467203        0.3900104458
 N          2.1857783314        1.9322586931       -0.0473940968
 O          3.3295935609        1.6003550154       -0.2340696836
 O          1.8259235095        3.1028868670        0.0559113549
 N          1.0811132011       -2.7919644710       -0.0670555198
 O          2.2573571661       -3.0096787486       -0.2495868805
 O          0.2204346539       -3.6400119080        0.0231431839
 H         -2.1250305295       -0.4473598385       -2.0289694315
 H         -3.7133368556       -1.0198367111       -1.5140717883
 H         -3.5861587805        0.2285778457       -2.7439318170
 H         -2.6739678076        1.8306043707       -1.1303020704
 H         -4.2317157223        1.2267216088       -0.5725225361
 H         -3.4920729439       -1.4245663740        0.6785658760
 H         -2.8759047744       -0.8368784065        2.2247123990
 H         -4.3535618850       -0.1598045908        1.5421665642
 H         -1.3701226514       -1.9471459454        0.3494449399
 H          2.6467923044       -0.6348200204       -0.2210082099
 H          0.1368509374        3.1065113220        0.3088129152
  29
        -53.54070281
 C         -4.5369597485        0.8126008091       -1.2700536962
 C         -3.0952992143        0.3309837645       -1.1733141911
 C         -2.5137665239        0.4717773976        0.2449858870
 H         -2.6087523562        1.5178170489        0.5482120866
 C         -3.2523849910       -0.4011474750        1.2595748495
 C         -1.0443164863        0.1400950658        0.1928396919
 C         -0.5968421039       -1.1603712164        0.1598438836
 C          0.7668829875       -1.4535770618        0.0834230699
 C          1.7046922917       -0.4454880537        0.0425099764
 C          1.2743031093        0.8789604748        0.0701327306
 C         -0.1022465776        1.1977884220        0.1373033580
 O         -0.5589217723        2.4392185642        0.1541866924
 N          2.2784818354        1.8973089552        0.0271361700
 O          3.4361586555        1.5650033008       -0.0229772872
 O          1.9077698181        3.0687727728        0.0445678929
 N          1.1934096251       -2.8317176229        0.0470942888
 O          2.3825184816       -3.0478736810       -0.0103396779
 O          0.3302283742       -3.6813738596        0.0754288295
 H         -4.6205173064        1.8390425030       -0.9206903747
 H         -4.8715381480        0.7747192035       -2.3038259691
 H         -5.1995696072        0.1882549336       -0.6775682284
 H         -3.0350927594       -0.7146607057       -1.4823918413
 H         -2.4790336912        0.9169419036       -1.8590905613
 H         -2.7045326796       -0.4359733517        2.1983733209
 H         -4.2364998531        0.0124398718        1.4583997031
 H         -3.3783963958       -1.4161199680        0.8922644258
 H         -1.2922766921       -1.9844365544        0.1936465861
 H          2.7602506948       -0.6700406673       -0.0117907347
 H          0.2018274442        3.0722054967        0.1214128144
  29
        -53.54056503
 C         -4.6306347855        0.4074596519       -1.3234702818
 C         -3.2863067521       -0.2391586780       -1.0115491409
 C         -2.5047653473        0.5375090108        0.0587031537
 H         -2.5972762517        1.6057632428       -0.1538407091
 C         -3.0516432673        0.2753632382        1.4655962135
 C         -1.0383773062        0.1888754287        0.0379381289
 C         -0.6089166549       -1.1170880096       -0.0158956176
 C          0.7523535851       -1.4307294511       -0.0101775929
 C          1.7051765396       -0.4376932938        0.0502383336
 C          1.2932106854        0.8914231763        0.1097925541
 C         -0.0801856497        1.2307382305        0.1092584642
 O         -0.5189999887        2.4771803854        0.1706893101
 N          2.3130535229        1.8933026868        0.1728435411
 O          3.4668020608        1.5438975219        0.1679396989
 O          1.9589084034        3.0686561655        0.2285234165
 N          1.1606951335       -2.8137041651       -0.0672151574
 O          2.3480053184       -3.0467136617       -0.0671091851
 O          0.2853092529       -3.6501067690       -0.1107152976
 H         -5.2716975952        0.4222125474       -0.4461938783
 H         -4.4932378863        1.4302187251       -1.6670475132
 H         -5.1406656295       -0.1500233596       -2.1051191521
 H         -3.4524447015       -1.2647906214       -0.6791408644
 H         -2.6917658367       -0.2750617077       -1.9272397751
 H         -2.5008276004        0.8579933031        2.2002104858
 H         -4.0981230633        0.5592247047        1.5219089606
 H         -2.9614634128       -0.7781276526        1.7204218435
 H         -1.3180585311       -1.9288097324       -0.0646407592
 H          2.7587084306       -0.6779097150        0.0535806170
 H          0.2512120079        3.0980497434        0.2097617976
  29
        -53.53960989
 C         -4.6737209903        0.6963156911        0.8708618144
 C         -3.1570849074        0.8273098234        0.8132130606
 C         -2.5512711792        0.0879454158       -0.3916024693
 H         -2.9958235723       -0.9118171758       -0.4288161922
 C         -2.8521011729        0.7920662988       -1.7171452705
 C         -1.0637474315       -0.0933174156       -0.2147058963
 C         -0.5293413034       -1.3600999954       -0.1507756357
 C          0.8428671400       -1.5679958065        0.0118232416
 C          1.7064213151       -0.5007168300        0.1132998775
 C          1.1910002308        0.7918920364        0.0518837627
 C         -0.1961399119        1.0246350005       -0.1118107489
 O         -0.7134072714        2.2387481332       -0.1723891822
 N          2.1249902469        1.8705506217        0.1619626365
 O          3.2937161176        1.6101037048        0.3006880078
 O          1.6878380630        3.0182862646        0.1096776813
 N          1.3557275698       -2.9154456678        0.0730666846
 O          2.5496961885       -3.0525209625        0.2136310037
 O          0.5554164377       -3.8198819693       -0.0204030602
 H         -5.1406859982        1.1644260285        0.0088935026
 H         -4.9690944290       -0.3503265534        0.8989882065
 H         -5.0539587436        1.1821455058        1.7659922997
 H         -2.8842252303        1.8810889446        0.7679246781
 H         -2.7314786658        0.4064690624        1.7277346450
 H         -2.3582869420        0.2749422349       -2.5370552221
 H         -3.9210004214        0.7866774037       -1.9071834339
 H         -2.5083984101        1.8215386771       -1.6934525061
 H         -1.1684277410       -2.2276226824       -0.2265688785
 H          2.7685797383       -0.6544282956        0.2388570127
 H          0.0077790610        2.9129238730       -0.0872101023
  29
        -53.53723364
 C         -4.0257918917       -1.3330482610       -0.0922831063
 C         -3.4405445405       -0.2233616702       -0.9633881140
 C         -2.5046091795        0.7656176816       -0.2493928435
 H         -2.4967931832        1.6918295078       -0.8354208966
 C         -3.0031784113        1.1260989470        1.1560505110
 C         -1.0672497827        0.3136084912       -0.1660947529
 C         -0.6672070161       -0.9967186664       -0.2806514574
 C          0.6803336222       -1.3554227492       -0.1749583776
 C          1.6534017109       -0.4057038612        0.0387626131
 C          1.2755893818        0.9313390910        0.1423240628
 C         -0.0812683863        1.3145987247        0.0424783064
 O         -0.4847883738        2.5719067027        0.1222776186
 N          2.3136781810        1.8930869451        0.3504968958
 O          1.9922799101        3.0770932518        0.4259987696
 O          3.4511503987        1.5043801625        0.4420778281
 N          1.0494290317       -2.7453064733       -0.2930977112
 O          2.2246972395       -3.0210845091       -0.2103101173
 O          0.1558373865       -3.5451605640       -0.4667342961
 H         -3.2625685319       -1.8774790144        0.4560952783
 H         -4.7322436302       -0.9273362511        0.6264341073
 H         -4.5597293285       -2.0414071193       -0.7215328817
 H         -2.9074461337       -0.6606615440       -1.8102200325
 H         -4.2747978165        0.3493657207       -1.3740187620
 H         -4.0411512080        1.4429461934        1.1068417696
 H         -2.9248354446        0.2736809101        1.8249702149
 H         -2.4166912014        1.9439528987        1.5646619425
 H         -1.3790311657       -1.7856101421       -0.4614350320
 H          2.6944335160       -0.6826848876        0.1212697605
 H          0.2986956045        3.1637450606        0.2515504502
  29
        -53.53657291
 C         -2.8976565884        1.1678170299        1.7674914437
 C         -3.3586769926        0.0402947361        0.8533971936
 C         -2.6614369034       -0.0111704831       -0.5225033001
 H         -2.9764696926       -0.9515658400       -0.9894152879
 C         -3.1212448512        1.1157530809       -1.4464623328
 C         -1.1642249411       -0.1138685288       -0.3479841742
 C         -0.6108175745       -1.3730729822       -0.2620232057
 C          0.7583383934       -1.5669268011       -0.0701809861
 C          1.6083720541       -0.4890451713        0.0341990777
 C          1.0775940642        0.7954710860       -0.0467064592
 C         -0.3120155648        1.0152051173       -0.2311260594
 O         -0.8288559155        2.2274483883       -0.2962211556
 N          2.0010919594        1.8826666049        0.0699952730
 O          3.1705096336        1.6317969520        0.2222075832
 O          1.5577883498        3.0279120801        0.0094291265
 N          1.2828595428       -2.9081358653        0.0135596210
 O          2.4757936224       -3.0320857525        0.1743886159
 O          0.4927388405       -3.8215250674       -0.0821589405
 H         -3.5052736131        1.1778524063        2.6692201891
 H         -1.8600803701        1.0295338501        2.0637936454
 H         -2.9935519745        2.1340432222        1.2815782066
 H         -3.1908189838       -0.9127847047        1.3606204083
 H         -4.4309584925        0.1377205963        0.6755415671
 H         -4.1726717142        0.9724936896       -1.6839852191
 H         -3.0017342576        2.0914440103       -0.9907202327
 H         -2.5557663932        1.0962328829       -2.3750541368
 H         -1.2380877103       -2.2488794391       -0.3437684536
 H          2.6701629646       -0.6288792358        0.1772183517
 H         -0.1106282285        2.9039045216       -0.2048453896
