! wb97x-v def2-tzvp def2/J RIJCOSX DEFGRID2 scfconv7 GCP(DFT/TZ) printgap
%output
    printlevel normal
end
* xyz 0 1
C 2.1893207481367534 -0.9372907346741645 -0.6058751263456038
C 1.2051031762566917 -0.1483377064780521 0.23772610944447428
C 1.751930485022287 1.2182499541686607 0.6269515019550009
O 0.00012767661859019175 0.0001034795774560317 -0.5482348846672332
C -1.2051860661150946 0.14867253947919756 0.23719581880655066
C -2.188813836351132 0.9380942668355363 -0.6066527530601913
C -1.752510345899616 -1.2178784037778654 0.6258395093547235
H 2.4018307579379177 -0.40553056688110123 -1.5399558103824145
H 3.1314321425586695 -1.06765833559303 -0.06496307085925378
H 1.789470780436181 -1.9262823478920332 -0.8495733988607908
H 0.9684516943481033 -0.7206858219662438 1.1463656674463933
H 1.0139792761976405 1.7972487054029742 1.191083934604819
H 2.0291050711753265 1.7834904259817004 -0.2697566529974854
H 2.6422959075047356 1.1058005035703062 1.2544565721982832
H -0.9688122199945616 0.7207314405343626 1.1460830745965218
H -3.131073526627636 1.0687307588474733 -0.06606295085121634
H -1.788512826308748 1.926976428512812 -0.8500596230648337
H -2.401177465354046 0.4065505672209192 -1.5408872437258645
H -2.642954986168099 -1.1053849394330586 1.2532193449173388
H -1.0148238910354879 -1.7972787727053332 1.1899016214644011
H -2.029685746057706 -1.7827259066017027 -0.2711082538580288
*
