! r2scan-3c def2/J RI DEFGRID2 scfconv6 printgap
%output
    printlevel normal
end
%cpcm
    smd true
    smdsolvent "water"
end
* xyz 0 1
C 2.2782371114 -0.3395852152 -0.7485988293
C 1.5260837029 -0.5928171107 0.553508493
C 0.3600689929 0.3708217685 0.776249631
C -0.7654009572 0.2838446746 -0.2638293075
H -0.3664965698 0.5214545919 -1.2624391305
C -1.4211772783 -1.0922954056 -0.3064172137
O -1.7942624222 1.217079265 0.0443112951
H 2.6106633587 0.6946875443 -0.8021303955
H 1.6489191562 -0.5448664635 -1.6105119225
H 3.1522835744 -0.9835791515 -0.8067249773
H 1.1645074571 -1.6213426137 0.5731836734
H 2.2197825378 -0.4746311636 1.3889853101
H -0.0803834342 0.1794438618 1.7578984307
H 0.7486632429 1.393344315 0.7796919463
H -2.2999727807 -1.0469002112 -0.9443025506
H -0.733907759 -1.8321700566 -0.7024600724
H -1.7355888092 -1.3830682472 0.6924278939
H -1.4156538118 2.1041836137 0.1029385376
*
