! pbe def2-sv(p) def2/J RI DEFGRID1 loosescf d4 GCP(DFT/SV(P)) printgap
%output
    printlevel normal
end
* xyz 0 1
C -2.5215131576 0.54462682 -0.8132223276
C -1.8822814266 -0.4985065722 0.0958868633
C -0.8356281929 0.1183368452 1.0202362127
O 0.2628012487 0.6634345234 0.2756494024
C 1.2810243336 -0.1332927257 -0.0270018116
O 1.3489440878 -1.2961250909 0.3167198185
C 2.3206340556 0.583606172 -0.8353454423
H -3.0500737455 1.2879258349 -0.2219490833
H -1.7602279774 1.050532882 -1.4019713835
H -3.2277293387 0.0722203665 -1.4901578774
H -1.4019593501 -1.276390731 -0.5021011001
H -2.6425312138 -0.9719424356 0.7173889643
H -1.2479825189 0.9651694446 1.570140473
H -0.4475832457 -0.634796308 1.7130506161
H 2.1517174927 1.6538913097 -0.7908935515
H 2.2505850427 0.2441714079 -1.8664995006
H 3.3079504723 0.3264129096 -0.4634299558
*
