  21
        -25.38544935
 C         -3.1554070437       -0.0014307704        0.8431008149
 C         -2.4545300950        0.0004068247       -0.5169052036
 C         -0.9627270640        0.0005378590       -0.3398197043
 C         -0.2592410435       -1.1917269865       -0.2316715541
 C          1.1075364093       -1.1918518552       -0.0244420224
 C          1.8116010036        0.0005640980        0.0835471181
 C          1.1076041585        1.1927267725       -0.0235544492
 C         -0.2594213618        1.1925751627       -0.2308020596
 C          3.2970994099       -0.0011055520        0.2847900218
 H         -2.8722386807        0.8795692049        1.4149066135
 H         -2.8715861696       -0.8833813277        1.4130937961
 H         -4.2358031117       -0.0016917513        0.7165424884
 H         -2.7610753773        0.8857396619       -1.0781114682
 H         -2.7606627890       -0.8836355961       -1.0803487297
 H         -0.7882173834       -2.1312100737       -0.3125737786
 H          1.6367760423       -2.1312578735        0.0551964332
 H          1.6362941836        2.1324101326        0.0568961926
 H         -0.7883864522        2.1321799051       -0.3107971725
 H          3.6092447487       -0.8684154512        0.8624744169
 H          3.8043066452       -0.0396798106       -0.6801745868
 H          3.6205078470        0.9010841760        0.7990301247
