  21
        -25.38544935
 C         -3.1554070437       -0.0014307704        0.8431008149
 C         -2.4545300950        0.0004068247       -0.5169052036
 C         -0.9627270640        0.0005378590       -0.3398197043
 C         -0.2592410435       -1.1917269865       -0.2316715541
 C          1.1075364093       -1.1918518552       -0.0244420224
 C          1.8116010036        0.0005640980        0.0835471181
 C          1.1076041585        1.1927267725       -0.0235544492
 C         -0.2594213618        1.1925751627       -0.2308020596
 C          3.2970994099       -0.0011055520        0.2847900218
 H         -2.8722386807        0.8795692049        1.4149066135
 H         -2.8715861696       -0.8833813277        1.4130937961
 H         -4.2358031117       -0.0016917513        0.7165424884
 H         -2.7610753773        0.8857396619       -1.0781114682
 H         -2.7606627890       -0.8836355961       -1.0803487297
 H         -0.7882173834       -2.1312100737       -0.3125737786
 H          1.6367760423       -2.1312578735        0.0551964332
 H          1.6362941836        2.1324101326        0.0568961926
 H         -0.7883864522        2.1321799051       -0.3107971725
 H          3.6092447487       -0.8684154512        0.8624744169
 H          3.8043066452       -0.0396798106       -0.6801745868
 H          3.6205078470        0.9010841760        0.7990301247
  21
        -25.38334018
 C         -3.2871208870        0.7017456978        0.3984440105
 C         -2.4490481128       -0.3902229225       -0.2567985388
 C         -0.9574811747       -0.2104075023       -0.1372279818
 C         -0.1301669649       -1.3178991160       -0.3009843181
 C          1.2429149574       -1.2027909757       -0.2213373523
 C          1.8408662897        0.0275057894        0.0284234010
 C          1.0185621370        1.1313318916        0.1913626563
 C         -0.3592319343        1.0165550974        0.1081249418
 C          3.3325592760        0.1405085420        0.1245645514
 H         -2.9980418943        0.8333683312        1.4388413602
 H         -4.3395617663        0.4282349882        0.3660109733
 H         -3.1721923129        1.6506374828       -0.1194478262
 H         -2.7051459554       -0.4459790763       -1.3205709557
 H         -2.7139827573       -1.3550095889        0.1846962330
 H         -0.5736278482       -2.2851240954       -0.4946142127
 H          1.8634563447       -2.0783724530       -0.3524292174
 H          1.4581385332        2.0999083958        0.3859563801
 H         -0.9629855753        1.9011802221        0.2383357312
 H          3.6973441588       -0.4061654057        0.9941931291
 H          3.8058176968       -0.2865863931       -0.7585289121
 H          3.6394782455        1.1793698269        0.2172609331
