  17
        -22.49562797
 C          2.3994501662        1.1034552577        0.0000118718
 C          1.1459759868        0.2838937867        0.0000606952
 C          1.1923385039       -1.1073056254       -0.0000149751
 C          0.0000272122       -1.8102188115        0.0000209556
 C         -1.1923015259       -1.1073306975        0.0000220341
 C         -1.1459781818        0.2838667209       -0.0000818233
 N         -0.0000084821        0.9498088118       -0.0000081341
 C         -2.3994940610        1.1034151439       -0.0000263923
 H          2.9995626114        0.8768477305        0.8798194716
 H          2.9967039718        0.8807046451       -0.8827432296
 H          2.1432831107        2.1585777434        0.0026029825
 H          2.1420384475       -1.6207396007       -0.0001099345
 H          0.0000383033       -2.8913158430       -0.0000759060
 H         -2.1419875328       -1.6207892217        0.0000093959
 H         -2.9943064588        0.8842742204        0.8853140937
 H         -2.1433684401        2.1585419963       -0.0073974650
 H         -3.0020618389        0.8732296954       -0.8772153961
