! r2scan-3c def2/J RI DEFGRID2 scfconv6 printgap
%output
    printlevel normal
end
* xyz 0 1
C -2.8506864758 0.42687586 -0.1527473175
C -1.4418075986 0.2801362118 0.4086991632
C -0.6600317676 -0.8129830336 -0.3178801248
C 0.7410122556 -1.0017701563 0.2335619269
Cl 1.7627183494 0.4507687028 -0.0687556465
H -2.8155021852 0.6868688822 -1.2081111962
H -3.402013929 -0.5043805255 -0.0467035774
H -3.3904893986 1.2087240233 0.3750398005
H -1.4966839683 0.0378569458 1.4720283112
H -0.9096314402 1.2283622466 0.3105254095
H -1.1839397759 -1.7651190532 -0.2104191337
H -0.6041286809 -0.5759997086 -1.3817410479
H 1.2543366198 -1.8301663667 -0.2506238829
H 0.7317171385 -1.1413507978 1.313185217
*
