! r2scan-3c def2/J RI DEFGRID2 scfconv6 printgap
%output
    printlevel normal
end
* xyz 0 1
C -3.2430791513 1.1810413423 0.1925843915
C -1.9011799307 0.79140354 -0.3325371484
O -1.689623526 0.1933262063 -1.3642628399
O -0.9242199708 1.2114837041 0.4848697857
C 0.3930046044 0.8341218756 0.2552208918
C 1.3410754907 1.8421551329 0.1708653672
C 2.6711954734 1.5221538416 -0.0380960592
C 3.0555261521 0.1978992908 -0.1823378701
C 2.1126361606 -0.8079845171 -0.0998105243
C 0.770317852 -0.5068298328 0.131009585
C -0.2187599652 -1.5982867493 0.2739878668
O -1.2627876208 -1.5073762702 0.8946672836
O 0.1550082825 -2.7188549532 -0.3190107938
H -3.9570280548 1.2343208611 -0.6226189397
H -3.1760039064 2.1211332672 0.7302871867
H -3.552690297 0.4026670442 0.8889386876
H 1.0179729165 2.8657235696 0.2709135818
H 3.4042594275 2.3105319285 -0.0962933279
H 4.0897255858 -0.050706348 -0.3564223384
H 2.3978156656 -1.842786895 -0.2010069167
H -0.5017534378 -3.4344257861 -0.2120864226
*
