! r2scan-3c def2/J RI DEFGRID2 scfconv6 printgap
%output
    printlevel normal
end
%cpcm
    smd true
    smdsolvent "water"
end
* xyz 0 1
C 2.0236789445 -0.2833265619 0.7305191925
C 1.4247171848 0.6567020931 -0.3099141456
C 0.2463283055 0.0848553757 -1.1043835992
C -1.0935519671 -0.1249981968 -0.3757163734
C -1.5007860516 1.0900415061 0.4548384388
C -1.1317519462 -1.3927650045 0.4768325316
H 2.9798570628 0.1057304453 1.0748151435
H 1.3757552552 -0.3848188309 1.5960981702
H 2.1892607131 -1.269960784 0.3040142511
H 1.1296708538 1.5910998145 0.168982475
H 2.2058301507 0.9010754506 -1.0353212977
H 0.0583760395 0.7756824482 -1.9314036957
H 0.5510763385 -0.8679868715 -1.5444893822
H -1.8439452772 -0.2527786993 -1.1670015273
H -0.8502169169 1.2053484736 1.3179716448
H -2.5203420433 0.9709928764 0.8147567134
H -1.4522351894 1.9971310738 -0.1434325249
H -2.1514212054 -1.5872881265 0.8034318133
H -0.7881049194 -2.2508501985 -0.0960014855
H -0.5097823301 -1.2969509798 1.3608394774
*
