! r2scan-3c def2/J RI DEFGRID2 scfconv6 printgap
%output
    printlevel normal
end
* xyz 0 1
C 2.4400586299 0.9433217058 -0.1485061762
C 1.1730977217 0.2272599822 0.3131316806
C 1.3987722609 -1.2820686871 0.3561740176
C 0.0096226005 0.5649900367 -0.6343328022
C -1.3081905299 -0.0152519736 -0.1884287858
O -1.9369555401 -0.7906389135 -0.884520562
C -1.8005559895 0.4198919813 1.1613731176
H 2.296537981 2.0208200559 -0.1477708929
H 3.2681397686 0.7061235938 0.5144845061
H 2.7075158655 0.6316920118 -1.1555121316
H 0.9247790906 0.5783807911 1.3185863558
H 2.190439186 -1.5296608351 1.05896672
H 1.6848722322 -1.6491116122 -0.627199558
H 0.4923369338 -1.8036984009 0.6573597678
H 0.2325478188 0.1886839796 -1.6349569627
H -0.104061907 1.6494466736 -0.6873665885
H -2.8670067909 0.2289614294 1.2456977165
H -1.2882888784 -0.1664736013 1.9221122697
H -1.5852075768 1.4690666075 1.3349957
*
