  13
  -23.5352766800000       0.500007936461027      !hor
 C         -1.9317413380       -1.2005874383        0.0000214809
 C         -0.5490334040       -1.2040526257       -0.0001022743
 C          0.1309994641        0.0002545448       -0.0002185629
 C         -0.5500663172        1.2067019772       -0.0001135541
 C         -1.9297592264        1.2062805110        0.0000268112
 C         -2.6309220664        0.0020678577        0.0000539454
 O         -3.9856918284        0.0514865079        0.0000642766
 Br         2.0370769465       -0.0012143759        0.0000384997
 H         -2.4700007633       -2.1387919835        0.0000438582
 H         -0.0068152854       -2.1368971175       -0.0001374386
 H         -0.0056929742        2.1381508696       -0.0001174507
 H         -2.4845574649        2.1304062253        0.0000573719
 H         -4.3528839933       -0.8409828593        0.0000393904
  13
  -23.5352766500000       0.499992063538973      !mtd6
 C         -1.9422049331       -1.1861226778        0.0001350549
 C         -0.5626050148       -1.2009055018        0.0000592230
 C          0.1309881588       -0.0016655370       -0.0000627213
 C         -0.5364279891        1.2096883053        0.0000545198
 C         -1.9190911920        1.2206118811        0.0001351365
 C         -2.6307478493        0.0253102603        0.0000874417
 O         -3.9859582309       -0.0099923557        0.0000273888
 Br         2.0369459322       -0.0199815044       -0.0000541722
 H         -2.5067396634       -2.1043217712       -0.0001900629
 H         -0.0278315865       -2.1379064857       -0.0005510307
 H          0.0155407843        2.1368510395       -0.0001163541
 H         -2.4476268805        2.1643641146       -0.0000211120
 H         -4.3438504832        0.8862824499       -0.0001314379
