  9
         -9.44819099
 C          0.4684658932        0.7259809721       -0.0000167824
 C          0.3944875881       -0.7686891929        0.0000355299
 C         -0.8629683933        0.0427099915       -0.0000129387
 H          0.7891431052        1.2226567215       -0.9030422928
 H          0.7889220393        1.2228325982        0.9030246762
 H          0.6644468204       -1.2946748486       -0.9030562774
 H          0.6644802850       -1.2946768757        0.9030232374
 H         -1.4533917036        0.0717543526       -0.9030543719
 H         -1.4534228415        0.0720869508        0.9030358051
