! r2scan-3c def2/J RI DEFGRID2 scfconv6 printgap
%output
    printlevel normal
end
%cpcm
    smd true
    smdsolvent "water"
end
* xyz 0 1
C -1.9233544352 0.4632078588 -0.4491611016
O -1.2386254853 -0.3421510605 0.5057623627
C 0.0423183379 -0.6948150046 0.1297016016
O 0.87147992 0.4429338822 0.0808029331
C 2.2175509588 0.1318679973 -0.2197013695
H -2.9062143818 0.6470029299 -0.0256758719
H -2.0131237562 -0.0718248823 -1.3993638283
H -1.3948790433 1.4053023491 -0.604944206
H 0.4026644423 -1.4007457209 0.8929198488
H 0.0471919563 -1.1922479849 -0.8629888043
H 2.7448826505 1.0813466383 -0.2374817201
H 2.2925544134 -0.3585759602 -1.1957016695
H 2.6448077913 -0.5215162665 0.547176859
*
