  21
        -34.42315376
 C         -3.6004477546        0.1154913903        0.0058294090
 O         -2.3366669531        0.7501071290       -0.0006089641
 C         -1.2186576827       -0.0366247041       -0.0014569344
 C         -1.2153448144       -1.4262946209       -0.0014339131
 C         -0.0168280412       -2.1161375466       -0.0017020553
 C          1.1939533154       -1.4481436853       -0.0014677354
 C          1.2046574004       -0.0611486789       -0.0015756916
 C          0.0008370604        0.6507154004       -0.0020467329
 O         -0.0056964968        2.0161113983       -0.0025617888
 O          2.3323092637        0.7282742458       -0.0010014997
 C          3.5947347927        0.0920568847        0.0061560270
 H         -4.3244189517        0.9270597136        0.0087017695
 H         -3.7304451271       -0.4972491588        0.9018427171
 H         -3.7390788124       -0.4985602307       -0.8879870054
 H         -2.1421045686       -1.9743470427       -0.0012771877
 H         -0.0269729269       -3.1942846080       -0.0018446470
 H          2.1140343236       -2.0074627605       -0.0012915630
 H          0.9154157500        2.3248096121       -0.0033887522
 H          3.7216312181       -0.5201083489        0.9023767551
 H          4.3215216589        0.9011796138        0.0082518122
 H          3.7304191112       -0.5232751127       -0.8865906317
  21
        -34.42268461
 C         -2.9274801876        1.4359774837       -0.0039514534
 O         -2.5854339850        0.0611393161        0.0012587363
 C         -1.2776369947       -0.3377331525        0.0006644167
 C         -1.1017516111       -1.7239816375       -0.0005671237
 C          0.1546596918       -2.2840038757       -0.0009301399
 C          1.2826486789       -1.4777622650       -0.0004808320
 C          1.1268432419       -0.1041736552        0.0006670287
 C         -0.1506070372        0.4840449300        0.0016329146
 O         -0.2397338002        1.8531338869        0.0036163274
 O          2.1563625663        0.8104844209        0.0010951198
 C          3.4845609810        0.3269045199       -0.0027033112
 H         -2.5498859025        1.9436779374        0.8849363933
 H         -4.0156696564        1.4502850486       -0.0047567319
 H         -2.5486632100        1.9369999326       -0.8961304144
 H         -1.9903254380       -2.3333970806       -0.0011924062
 H          0.2654423298       -3.3560656848       -0.0018080322
 H          2.2622316384       -1.9242846938       -0.0009514122
 H          0.6631006785        2.2114855238        0.0037037727
 H          4.1115245131        1.2156849597       -0.0034281174
 H          3.6842991798       -0.2663691211       -0.8982208041
 H          3.6888730012       -0.2681024430        0.8906277914
  21
        -34.41969926
 C         -3.0254438246        1.4031848506        0.0093167612
 O         -2.5848779297        0.0507660875       -0.0068967737
 C         -1.2727138676       -0.3198286293       -0.0029132367
 C         -1.0954183354       -1.7087439862       -0.0043489386
 C          0.1561012897       -2.2765480956       -0.0028941842
 C          1.2887091563       -1.4765887867       -0.0001321254
 C          1.1360691317       -0.1034787944        0.0011568340
 C         -0.1382998924        0.4934086313       -0.0001198571
 O         -0.2003494598        1.8672762933        0.0009532469
 O          2.1694714123        0.8070548514        0.0030053044
 C          3.4957943790        0.3185190564        0.0010746341
 H         -3.6445991175        1.5354011722        0.8985452114
 H         -3.6338759706        1.5604834482       -0.8831900971
 H         -2.2071488407        2.1140013497        0.0240891580
 H         -1.9868732889       -2.3141753424       -0.0072459496
 H          0.2598568251       -3.3493083532       -0.0043743260
 H          2.2664769488       -1.9267278945        0.0009356948
 H          0.7109565444        2.2056518199        0.0025358375
 H          3.6953508604       -0.2729946518       -0.8956426271
 H          3.6959273173       -0.2796325726        0.8932121964
 H          4.1261560860        1.2048873135        0.0041923593
