  26
        -33.44580857
 C          1.5292426416       -1.9425735776       -0.7296952182
 C          1.5920023588       -1.2768755994        0.6399803288
 C          2.4709078814       -0.0264472951        0.6633681517
 C          1.9599869301        1.1346070555       -0.1901221049
 C          0.6067808266        1.6764582704        0.2786378215
 C         -0.5508381005        0.8870144790       -0.2874217440
 O         -0.6256942596        0.4896106888       -1.4207309659
 O         -1.5154173177        0.7234911079        0.6264932693
 C         -2.6881858348        0.0168567069        0.2175317568
 C         -2.4876761722       -1.4900081708        0.2930123734
 H          1.0038470589       -2.8931784173       -0.6619638572
 H          1.0031273744       -1.3151216230       -1.4440231866
 H          2.5318412095       -2.1330531598       -1.1070589364
 H          1.9973464856       -1.9900275073        1.3629526021
 H          0.5831645914       -1.0209014753        0.9682919422
 H          2.5652336234        0.3157928021        1.6977530122
 H          3.4711664114       -0.2948741385        0.3144141470
 H          2.6968440498        1.9391894768       -0.1452337866
 H          1.8669549654        0.8250964431       -1.2315976356
 H          0.5343843721        1.6901836133        1.3661115334
 H          0.4819517826        2.6993254557       -0.0864649693
 H         -3.4709792185        0.3462557737        0.9038700109
 H         -2.9394136203        0.3129224550       -0.8063091939
 H         -1.7145164399       -1.7965427956       -0.4070698739
 H         -2.1922070477       -1.7816007441        1.2982959518
 H         -3.4151740429       -1.9935074960        0.0358673581
