! r2scan-3c def2/J RI DEFGRID2 scfconv6 printgap
%output
    printlevel normal
end
%cpcm
    smd true
    smdsolvent "water"
end
* xyz 0 1
C -2.655768131 -0.3337006864 -0.7443117088
C -1.9979081748 0.5817045774 0.281114015
C -0.7708057485 -0.0590411393 0.9396802876
C 0.4310685624 -0.1091387601 0.0316360814
O 0.4240224395 -0.3745904252 -1.151451454
O 1.5401863525 0.1730225973 0.7108441478
C 2.8000831408 0.1478994404 0.0324194945
H -3.5049034399 0.1645052619 -1.204667416
H -1.944764997 -0.5976568418 -1.5227275124
H -3.0061139995 -1.247704228 -0.2703315212
H -2.7175763316 0.8233857861 1.064600758
H -1.7003190576 1.5142495025 -0.2021623188
H -1.0086467644 -1.0878822485 1.2200761214
H -0.4803903372 0.4838096218 1.8389606966
H 3.4670005632 -0.4858164452 0.6127339724
H 3.1837748806 1.1661073183 -0.008040409
H 2.6697018604 -0.2470584826 -0.975759985
*
