! pbe def2-sv(p) def2/J RI DEFGRID1 loosescf d4 GCP(DFT/SV(P)) printgap
%output
    printlevel normal
end
* xyz 0 1
C 3.4105498352 0.9704341947 0.152219367
C 2.5568065289 -0.2591962444 0.0404719197
C 3.1096797849 -1.4617605231 0.1022528364
C 1.0783875092 -0.0478716797 -0.2255849726
H 0.9795888123 0.0988939709 -1.3097005301
C 0.2228620336 -1.2609413518 0.1777818146
C -1.2286592796 -0.9138339598 0.5656961982
C -1.7089984376 0.3705657313 -0.0348906483
C -0.8723569414 1.4212333776 -0.0485852416
C 0.5185022428 1.2334171463 0.4332967988
C -3.0566809288 0.4667833526 -0.5524170364
O -3.871796486 -0.4381422974 -0.5914449891
H 3.233454631 1.6377195604 -0.6890029769
H 3.193229914 1.5101739135 1.0717529192
H 4.4620338153 0.6972857772 0.1600799984
H 2.5539110073 -2.3761427068 0.0013403427
H 4.1701717806 -1.5775225211 0.2512250003
H 0.209144528 -1.9707964677 -0.6494196932
H 0.6852367644 -1.755690652 1.0320469897
H -1.9053647178 -1.720709344 0.2811533401
H -1.288585814 -0.8077906746 1.6524492736
H -1.17522583 2.3757526351 -0.4521681727
H 1.1241493645 2.1017031004 0.1897115536
H 0.5210705409 1.0922384219 1.517301088
H -3.3279685656 1.467130465 -0.9403291314
*
