! pbe def2-sv(p) def2/J RI DEFGRID1 loosescf d4 GCP(DFT/SV(P)) printgap
%output
    printlevel normal
end
* xyz 0 1
C -3.0180726277 0.2506339379 0.724588311
C -2.2857148515 0.213684299 -0.6121104894
C -1.0672920438 -0.7119194681 -0.6078938104
C 0.069806137 -0.2513380546 0.3054581841
C 1.2679228896 -1.2297122758 0.2758094281
C 2.469889519 -0.4187544291 -0.217798146
C 2.1413826697 1.007929347 0.2090045475
C 0.6516197656 1.1125993649 -0.1035216335
H -3.2926231137 -0.7549210158 1.0357796938
H -2.3967660164 0.693132052 1.4986693228
H -3.9255497031 0.8438659215 0.6400409037
H -2.9780158371 -0.1370068096 -1.3813938001
H -1.9767602203 1.2243045506 -0.8841202461
H -1.3867397296 -1.7097801082 -0.2962243035
H -0.6835346348 -0.7903592237 -1.6284970732
H -0.3095127156 -0.1887273228 1.3281772602
H 1.4632679725 -1.613764427 1.2773550902
H 1.0696926108 -2.0824564143 -0.3726239649
H 3.4103668503 -0.7781581422 0.1972378593
H 2.5349629726 -0.4673034267 -1.305859601
H 2.3095108923 1.1246793531 1.2809409511
H 2.7341662458 1.7542572828 -0.3181595256
H 0.174424029 1.9394421377 0.4204974053
H 0.5176977066 1.2630882759 -1.1764569376
*
