! r2scan-3c def2/J RI DEFGRID2 scfconv6 printgap
%output
    printlevel normal
end
* xyz 0 1
C -1.9039766946 1.2266354909 1.1657842771
C -2.0148824772 1.0034218954 -0.3110581044
O -3.0476134767 1.0594965126 -0.9358573775
O -0.8846859161 0.7504046468 -0.9911637551
C 0.3539503431 0.6302730894 -0.372255412
C 1.2000366069 1.7296775317 -0.3557308748
C 2.4803426993 1.610268497 0.1577860876
C 2.9271252111 0.3905140562 0.6418944618
C 2.0940554329 -0.7112365658 0.6129907317
C 0.7960796768 -0.6059322392 0.1136782057
C -0.0951998632 -1.7893125316 0.1078583912
O -1.3096029904 -1.7360677746 0.1729188886
O 0.565984981 -2.9321246204 0.0502047785
H -1.7059308941 0.2668397925 1.6401126012
H -2.8466502445 1.6190483328 1.5329646214
H -1.0873408787 1.9073942957 1.3929418919
H 0.8425591688 2.6655928671 -0.7553603391
H 3.128006095 2.4719390099 0.1729709731
H 3.9256505556 0.2972808307 1.0364110054
H 2.4295436139 -1.6676209405 0.9803731675
H -0.025366317 -3.7099863369 0.062284282
*
