! r2scan-3c def2/J RI DEFGRID2 scfconv6 printgap
%output
    printlevel normal
end
%cpcm
    smd true
    smdsolvent "water"
end
* xyz 0 1
C -3.1003241152 0.4280241931 -0.3054495714
C -1.783173798 -0.3367267367 -0.3599021996
C -0.8334803064 0.0571022227 0.78207447
O 0.3720777817 0.6573983204 0.287283714
C 1.3977018669 -0.134515012 -0.0112956903
O 1.3749312818 -1.3399705037 0.1263039188
C 2.567351426 0.6536723839 -0.5195347784
H -3.7366287084 0.1336697592 -1.1354774508
H -3.6243942079 0.2153380117 0.6225164616
H -2.9216014725 1.4980933782 -0.3691926379
H -1.2819493959 -0.1289656673 -1.3074992063
H -1.9755692335 -1.4090564504 -0.3213212664
H -1.2792455496 0.8241570119 1.416113468
H -0.5589689582 -0.8122945035 1.3858723431
H 3.3917873372 -0.0167259825 -0.7376126889
H 2.8597433979 1.3823863042 0.2314594195
H 2.2722514213 1.1933640578 -1.4152836339
*
