  24
  -31.8076457800000       0.155636585095778      !md5
 C         -2.6712198368       -1.6858358217        0.8311883057
 C         -2.3231812564       -1.0078354746       -0.4961659901
 C         -1.2962850407        0.0722892099       -0.2939598886
 C         -1.7080019852        1.3769682864       -0.1888092594
 C         -0.8017444434        2.4208042894        0.0397498427
 C          0.5305838329        2.1533994431        0.1667643667
 C          1.0051462847        0.8293778208        0.0674351010
 C          0.0866285185       -0.2311195264       -0.1658686332
 C          0.6021393498       -1.5427455515       -0.2612407900
 C          1.9397443525       -1.7916179593       -0.1282489595
 C          2.8403013420       -0.7428793232        0.1061733922
 C          2.3794992879        0.5390972045        0.1990709038
 H         -1.7873340408       -2.1333161981        1.2794389794
 H         -3.4160808898       -2.4635231360        0.6768852052
 H         -3.0724886297       -0.9554015792        1.5302610037
 H         -3.2295622302       -0.5645389261       -0.9141295574
 H         -1.9632385310       -1.7527748451       -1.2078117485
 H         -2.7591675750        1.6115255071       -0.2847783167
 H         -1.1689198844        3.4341782679        0.1144905113
 H          1.2408578143        2.9481457693        0.3454171964
 H         -0.0684572057       -2.3678220773       -0.4440655831
 H          2.3122565563       -2.8031609420       -0.2043867796
 H          3.8940912105       -0.9573155889        0.2092442316
 H          3.0632417540        1.3575903168        0.3760717583
  24
  -31.8076457800000       0.155636585095778      !mtd3
 C         -2.6665076825       -1.6820854109       -0.8547935777
 C         -2.3262846897       -1.0097065412        0.4773877944
 C         -1.2981356529        0.0710656852        0.2854040634
 C         -1.7092721553        1.3760477565        0.1815559409
 C         -0.8016402938        2.4206492752       -0.0376987036
 C          0.5315879257        2.1538214672       -0.1562903677
 C          1.0056288962        0.8295513493       -0.0577385495
 C          0.0856505280       -0.2317983455        0.1655614440
 C          0.6006271057       -1.5437231558        0.2598064557
 C          1.9391327845       -1.7920390018        0.1353304872
 C          2.8412030759       -0.7423631434       -0.0887986015
 C          2.3809351128        0.5398771544       -0.1805630094
 H         -3.4133915023       -2.4594411490       -0.7084287942
 H         -1.7802348746       -2.1288885365       -1.2990305965
 H         -3.0622540826       -0.9482883751       -1.5535804087
 H         -1.9706748596       -1.7576862421        1.1880097806
 H         -3.2350151258       -0.5679325237        0.8918221807
 H         -2.7610933799        1.6101827850        0.2712728671
 H         -1.1684755952        3.4341213224       -0.1121619812
 H          1.2429050993        2.9491728502       -0.3279158611
 H         -0.0711544078       -2.3695093988        0.4350608223
 H          2.3112247972       -2.8038025501        0.2106248074
 H          3.8957551926       -0.9561985488       -0.1848832792
 H          3.0657755136        1.3590726902       -0.3500109986
  24
  -31.8076457700000       0.155634938166041      !mtd1
 C         -2.6711449869       -1.6860837291        0.8308596821
 C         -2.3232435467       -1.0077333661       -0.4962957499
 C         -1.2963254945        0.0723049322       -0.2938025752
 C         -1.7079926273        1.3770367567       -0.1886544279
 C         -0.8017261434        2.4208178793        0.0398175439
 C          0.5306506810        2.1534308390        0.1666684798
 C          1.0051675605        0.8294127115        0.0673280117
 C          0.0865958416       -0.2310923568       -0.1656913937
 C          0.6021123063       -1.5427715051       -0.2609290902
 C          1.9396691572       -1.7916745311       -0.1280024731
 C          2.8402893747       -0.7428494044        0.1060477964
 C          2.3795655705        0.5391358216        0.1987895103
 H         -3.0722988114       -0.9558624822        1.5303545444
 H         -1.7872307619       -2.1338999037        1.2788480171
 H         -3.4161932222       -2.4636763215        0.6763314692
 H         -3.2296438033       -0.5641851380       -0.9139953059
 H         -1.9633315857       -1.7524118081       -1.2082791939
 H         -2.7591863175        1.6115242365       -0.2844902125
 H         -1.1688777856        3.4341391179        0.1147880865
 H          1.2408346602        2.9481548091        0.3455518124
 H         -0.0685371360       -2.3677878184       -0.4437799912
 H          2.3122219971       -2.8031719462       -0.2041308287
 H          3.8940739241       -0.9572398635        0.2091278202
 H          3.0632803523        1.3576288975        0.3757515095
  24
  -31.8076457200000       0.155626703779350      !mtd6
 C         -2.6654082409       -1.6818380623       -0.8558043778
 C         -2.3264318680       -1.0097808548        0.4768659070
 C         -1.2982469952        0.0710912355        0.2856147559
 C         -1.7092770441        1.3761731920        0.1824220263
 C         -0.8016533414        2.4207159793       -0.0370561872
 C          0.5314803699        2.1537423836       -0.1567299439
 C          1.0054684996        0.8294685065       -0.0582618690
 C          0.0855110275       -0.2317996039        0.1656241921
 C          0.6005161807       -1.5436798562        0.2606259533
 C          1.9390150761       -1.7920261406        0.1363219361
 C          2.8410210339       -0.7424885640       -0.0888708008
 C          2.3807246321        0.5396856909       -0.1814458333
 H         -1.7783301431       -2.1267984266       -1.3003514747
 H         -3.0625536379       -0.9484243124       -1.5541543844
 H         -3.4108476327       -2.4606800377       -0.7099420172
 H         -1.9712123986       -1.7577527729        1.1876544049
 H         -3.2355280387       -0.5681717913        0.8906201815
 H         -2.7610422563        1.6103627832        0.2727263737
 H         -1.1683822143        3.4342762470       -0.1108151468
 H          1.2427353448        2.9490469354       -0.3288029770
 H         -0.0712741659       -2.3692960979        0.4364645958
 H          2.3111919264       -2.8036874899        0.2123845157
 H          3.8955416955       -0.9564353902       -0.1851337543
 H          3.0655186897        1.3587581172       -0.3515685318
  24
  -31.8076457100000       0.155625056954176      !mtd1
 C         -2.6644312755       -1.6818558345       -0.8561197706
 C         -2.3264958076       -1.0096985364        0.4768058321
 C         -1.2983305730        0.0712090678        0.2859240009
 C         -1.7094193471        1.3761942551        0.1819122500
 C         -0.8017181587        2.4207274766       -0.0374773615
 C          0.5314734575        2.1537695736       -0.1564386866
 C          1.0054235885        0.8294840918       -0.0577058664
 C          0.0854606136       -0.2317115092        0.1663182444
 C          0.6003966019       -1.5436291267        0.2612773739
 C          1.9387688464       -1.7921469755        0.1360304183
 C          2.8407792931       -0.7426670092       -0.0894971982
 C          2.3806341374        0.5395997397       -0.1813098691
 H         -3.0603402025       -0.9481402515       -1.5549085740
 H         -3.4103872083       -2.4604008763       -0.7110675882
 H         -1.7769748703       -2.1269968530       -1.2996721059
 H         -1.9716513769       -1.7576050384        1.1878872709
 H         -3.2359047317       -0.5682064244        0.8900104011
 H         -2.7612601834        1.6103207304        0.2714147330
 H         -1.1684800504        3.4342094036       -0.1121311995
 H          1.2427809850        2.9490168800       -0.3285545664
 H         -0.0713780048       -2.3691697804        0.4375797224
 H          2.3109048106       -2.8038572647        0.2115137018
 H          3.8951950066       -0.9567852330       -0.1865614960
 H          3.0654336458        1.3586777249       -0.3513574275
  24
  -31.8076456400000       0.155613529667058      !md3
 C         -2.6721823485       -1.6845833925        0.8312144854
 C         -2.3228106468       -1.0082510522       -0.4966282321
 C         -1.2961333232        0.0720252284       -0.2942744201
 C         -1.7080844448        1.3765880419       -0.1883262639
 C         -0.8019958609        2.4204776532        0.0405217762
 C          0.5304674165        2.1533158770        0.1668036076
 C          1.0052223213        0.8293913227        0.0669592641
 C          0.0868056975       -0.2312108161       -0.1661513839
 C          0.6023986863       -1.5428652386       -0.2611106215
 C          1.9399767938       -1.7916563931       -0.1278231996
 C          2.8404712778       -0.7427449618        0.1061190917
 C          2.3796440968        0.5392489905        0.1984970905
 H         -3.4151024032       -2.4642101705        0.6768987105
 H         -3.0763765760       -0.9535819217        1.5281826982
 H         -1.7882986200       -2.1294172111        1.2821202936
 H         -3.2288302012       -0.5654572276       -0.9159293056
 H         -1.9621115914       -1.7540403274       -1.2069995770
 H         -2.7593186650        1.6107941432       -0.2835994344
 H         -1.1693795292        3.4336846105        0.1163988167
 H          1.2405918669        2.9481847018        0.3456186272
 H         -0.0681233851       -2.3679935704       -0.4438256228
 H          2.3125606630       -2.8032103573       -0.2035186787
 H          3.8942768964       -0.9570201658        0.2093756097
 H          3.0632928476        1.3578482063        0.3753372489
  24
  -31.8058001400000       2.207568948148216E-002 !mtd1
 C         -3.6051058888       -1.0337828026        0.0341098549
 C         -2.1099452914       -1.3258243504       -0.0069817836
 C         -1.2070183639       -0.1180289554        0.0210270539
 C         -1.7003902112        1.1596104587        0.0812963722
 C         -0.8525426723        2.2771066475        0.1072885390
 C          0.5011500827        2.1176228893        0.0726496013
 C          1.0612331927        0.8247451816        0.0101528745
 C          0.2049914547       -0.3092570917       -0.0161936047
 C          0.8051775543       -1.5862530983       -0.0790339123
 C          2.1643962743       -1.7326496991       -0.1136135247
 C          3.0033260742       -0.6102454579       -0.0872452904
 C          2.4591334836        0.6407641955       -0.0265857400
 H         -3.8755834486       -0.5068469597        0.9462356298
 H         -4.1580276342       -1.9707277861        0.0090166125
 H         -3.9107936885       -0.4385737767       -0.8232715533
 H         -1.8934579094       -1.8963450651       -0.9156116948
 H         -1.8577865223       -1.9637812833        0.8458849349
 H         -2.7641074806        1.3336248506        0.1104737369
 H         -1.2878423811        3.2649417926        0.1551964686
 H          1.1625621276        2.9720069504        0.0924763627
 H          0.1832729436       -2.4675001964       -0.1005465625
 H          2.6007821582       -2.7200173977       -0.1618215604
 H          4.0750176616       -0.7432695637       -0.1151692674
 H          3.0933252930        1.5160529824       -0.0055685893
  24
  -31.8058001400000       2.207568948148216E-002 !gc
 C         -3.6050629258       -1.0337837902        0.0358261956
 C         -2.1099719212       -1.3258014896       -0.0081093710
 C         -1.2070375641       -0.1180425735        0.0205067406
 C         -1.7003776361        1.1595365314        0.0811245348
 C         -0.8524928440        2.2771322687        0.1073969857
 C          0.5011483839        2.1176764717        0.0728605937
 C          1.0612012957        0.8247098078        0.0102107898
 C          0.2050190687       -0.3092522102       -0.0166197038
 C          0.8051611660       -1.5862652526       -0.0796123004
 C          2.1643875674       -1.7326467985       -0.1137826197
 C          3.0033121083       -0.6102357390       -0.0869598225
 C          2.4591106266        0.6407645193       -0.0262284126
 H         -4.1578610062       -1.9707469217        0.0107513349
 H         -3.9123074523       -0.4377200378       -0.8203775244
 H         -3.8739038560       -0.5077024718        0.9489225357
 H         -1.8947136257       -1.8949291114       -0.9179179789
 H         -1.8567101714       -1.9650691606        0.8434611346
 H         -2.7640474998        1.3338415476        0.1102458277
 H         -1.2880543869        3.2648373670        0.1553968818
 H          1.1627584950        2.9718940981        0.0927167863
 H          0.1831581008       -2.4674513948       -0.1014604862
 H          2.6008642211       -2.7199826810       -0.1618957694
 H          4.0750207247       -0.7432882419       -0.1145643593
 H          3.0932572395        1.5160742737       -0.0049232596
  24
  -31.8058001200000       2.207522227885580E-002 !gc
 C         -3.6050876507       -1.0336993066        0.0350283218
 C         -2.1100014451       -1.3257986472       -0.0082856959
 C         -1.2070274194       -0.1180709398        0.0207904024
 C         -1.7003567311        1.1595177740        0.0816986669
 C         -0.8525025716        2.2771077000        0.1077129846
 C          0.5011333736        2.1176705142        0.0725680299
 C          1.0611959803        0.8247196522        0.0099256018
 C          0.2050240196       -0.3092706075       -0.0164450333
 C          0.8051908059       -1.5862988357       -0.0789959866
 C          2.1644162769       -1.7326649417       -0.1132515652
 C          3.0033206603       -0.6102144189       -0.0871439198
 C          2.4591030428        0.6407918203       -0.0268216212
 H         -3.9117650061       -0.4371906050       -0.8210647536
 H         -3.8745251423       -0.5081879544        0.9482716939
 H         -4.1578828033       -1.9706502376        0.0090238599
 H         -1.8943073644       -1.8948795232       -0.9180210386
 H         -1.8572241199       -1.9651272077        0.8433645573
 H         -2.7640277249        1.3337333606        0.1110558644
 H         -1.2880240104        3.2648211985        0.1558777142
 H          1.1627068591        2.9719277933        0.0920406385
 H          0.1832151315       -2.4675190942       -0.1003203463
 H          2.6009124756       -2.7200143280       -0.1608910818
 H          4.0750238257       -0.7432614796       -0.1149413903
 H          3.0932273858        1.5161289596       -0.0060256460
