! pbe def2-sv(p) def2/J RI DEFGRID1 loosescf d4 GCP(DFT/SV(P)) printgap
%output
    printlevel normal
end
* xyz 0 1
C -2.5480489891 0.2302620872 0.8821477386
C -1.7398866846 0.6749892189 -0.340817228
C -0.5071912005 -0.1837409621 -0.4541062629
O -0.4456062432 -1.229659652 -1.0688112072
O 0.5052312578 0.3254626289 0.2305859411
C 1.751952268 -0.3904181126 0.2619094311
C 2.8790521085 0.6103862267 0.437171467
H -1.9650027472 0.3661017221 1.7894126312
H -3.4559745809 0.8210285899 0.9555588891
H -2.818142325 -0.8194112967 0.7927371535
H -1.4377433149 1.7149379738 -0.2290024322
H -2.3337143806 0.5473350087 -1.2451045211
H 1.7114328887 -1.0938281935 1.0993319238
H 1.8488012371 -0.9590592207 -0.6685412267
H 2.7292277285 1.1800559142 1.3495621806
H 3.8236184618 0.0796001045 0.4959772687
H 2.9068341299 1.2969948209 -0.4042336661
*
