! pbe def2-sv(p) def2/J RI DEFGRID1 loosescf d4 GCP(DFT/SV(P)) printgap
%output
    printlevel normal
end
* xyz 0 1
C 2.0509189169 -2.5120987397 0.1957498505
O 0.8116401097 -1.8491762423 -0.018063707
C 0.6632450871 -0.5146069137 0.0145925374
C 1.6377588112 0.4896468076 0.0489702049
C 1.2799855684 1.8309424558 0.0309690875
C -0.0398088645 2.2270747784 -0.0369061359
C -1.0199862629 1.2503952471 -0.0839484
C -0.6854255456 -0.0960332814 -0.0427942985
C -1.7555025638 -1.140610371 -0.0785547037
O -2.6127149118 -1.1963457327 -0.9331363644
O -1.6816308236 -1.9808537077 0.9308884997
Cl -2.6831399314 1.7136077823 -0.155559946
Cl 3.3503876582 0.1756555444 0.1014573962
H 2.5054062285 -2.2123995402 1.1397679344
H 2.7423707017 -2.3417429779 -0.6298900525
H 1.7847738268 -3.5665173224 0.236204265
H 2.0606984471 2.5736480262 0.0631149144
H -0.3078852736 3.2687308561 -0.0543649404
H -2.368455577 -2.6770313072 0.8977168344
*
