  10
        -10.75424283
 C         -1.2047818692        0.2532755299        0.0162311523
 N         -0.0000000786       -0.5434228716       -0.0853656266
 C          1.2047811219        0.2532749068        0.0162297471
 H         -2.0714041370       -0.4024367739       -0.0457011425
 H         -1.2329667611        0.9479494681       -0.8238981822
 H         -1.2686294258        0.8380158556        0.9475512156
 H         -0.0000039638       -1.2516300972        0.6435778528
 H          1.2686635260        0.8379697031        0.9475636844
 H          1.2329508561        0.9479681956       -0.8238698497
 H          2.0713999039       -0.4024242674       -0.0457366659
