  10
        -10.75424283
 C         -1.2047818692        0.2532755299        0.0162311523
 N         -0.0000000786       -0.5434228716       -0.0853656266
 C          1.2047811219        0.2532749068        0.0162297471
 H         -2.0714041370       -0.4024367739       -0.0457011425
 H         -1.2329667611        0.9479494681       -0.8238981822
 H         -1.2686294258        0.8380158556        0.9475512156
 H         -0.0000039638       -1.2516300972        0.6435778528
 H          1.2686635260        0.8379697031        0.9475636844
 H          1.2329508561        0.9479681956       -0.8238698497
 H          2.0713999039       -0.4024242674       -0.0457366659
  10
        -10.74969600
 C         -1.2185079331        0.2439600375        0.0467957748
 N         -0.0040462753       -0.5364492391       -0.0527237970
 C          1.2227802168        0.2466850736        0.0471419321
 H         -1.3097190959        1.0306540839       -0.7191715189
 H         -1.2504432934        0.7161588492        1.0290615455
 H         -2.0732500409       -0.4251201483       -0.0407653787
 H         -0.0121029771       -1.0705251390       -0.9142936690
 H          1.0017751156        1.3002654717        0.2259127151
 H          1.8335835154        0.1800338790       -0.8551645521
 H          1.8154753244       -0.1234253984        0.8876767467
