! r2scan-3c def2/J RI DEFGRID2 scfconv6 printgap
%output
    printlevel normal
end
* xyz 0 1
C -2.1744540536 -0.5773790342 -0.5549405208
C -1.3199033166 -0.2684275516 0.669760125
C -0.4959366603 1.011064084 0.5217235593
C 0.614749032 0.8999045765 -0.5304487488
C 1.5740901534 -0.1317368756 -0.1932207675
C 2.3565963823 -0.987534638 0.1039041064
H -2.8054512203 -1.4419502349 -0.3633249919
H -1.5540986408 -0.801146028 -1.4189967493
H -2.8153890734 0.2682037609 -0.7961034701
H -1.9740022072 -0.1591182589 1.5380207265
H -0.6452924974 -1.105292393 0.8644666111
H -1.15587333 1.8368697271 0.2468504113
H -0.0409014937 1.2496935177 1.4859842389
H 1.1420957311 1.8550852198 -0.6019053303
H 0.1854377422 0.6770492897 -1.5097614088
H 3.0483456862 -1.7346204109 0.3548443551
*
