  5
  -21.0785639800000        1.00000000000000      !md1
 C         -0.0000176525       -0.0000319165        0.0000419140
 F         -0.8441990338        0.0656500415        1.0049116118
 F         -0.6680111514       -0.0898023048       -1.1280679087
 F          0.7667856860       -1.0579021655        0.1404273254
 F          0.7454356593        1.0820746068       -0.0172975270
