! pbe def2-sv(p) def2/J RI DEFGRID1 loosescf d4 GCP(DFT/SV(P)) printgap
%output
    printlevel normal
end
* xyz 0 1
C 1.9772445911 -0.8237427837 -0.0299422625
C 1.3294389418 0.5318776207 0.2298490805
C -0.0497983176 0.6496094121 -0.4195899382
C -1.0965216674 -0.1788909244 0.2662846138
C -2.3841419824 -0.1363738447 -0.0229047613
H 1.3542086112 -1.6312364907 0.3467341074
H 2.9466475231 -0.8824662944 0.4592661839
H 2.1210159078 -0.9760284254 -1.0975758326
H 1.2365100454 0.6952709356 1.3059106265
H 1.9772066456 1.3159399925 -0.1683252379
H 0.0214311736 0.3424908075 -1.4671317731
H -0.3674873319 1.6955137171 -0.4152659255
H -0.7452796137 -0.8380813597 1.0486011964
H -3.107683696 -0.7388205035 0.4989776609
H -2.7700001475 0.5112273371 -0.7935639471
*
