! r2scan-3c def2/J RI DEFGRID2 scfconv6 printgap
%output
    printlevel normal
end
%cpcm
    smd true
    smdsolvent "water"
end
* xyz 0 1
C 2.2745707078 0.9418249266 0.8163902749
C 1.4214465287 -0.313214773 0.6633958862
C 0.33253055 -0.1720121527 -0.422767025
H 0.4785042608 0.784420036 -0.9372522258
C 0.4913020434 -1.2866308932 -1.4587485073
C -1.0816751268 -0.1562924668 0.1913719111
C -1.2688237479 1.0595153199 1.1000390079
C -2.1756875347 -0.1396949925 -0.8774235333
H 3.0250953097 0.7991651523 1.5909675782
H 2.7860519705 1.1678458816 -0.1167710563
H 1.6616955363 1.79828648 1.0863343264
H 0.9631051525 -0.5568770203 1.6233904091
H 2.0789627659 -1.1469252714 0.4097097661
H -0.1568709505 -1.1279740127 -2.3155029787
H 1.5173380839 -1.3129911265 -1.8192647129
H 0.2563828491 -2.2528503875 -1.0166171053
H -1.2031485986 -1.0652457962 0.7927630978
H -1.1678892246 1.9764637808 0.5228600886
H -0.5387800445 1.075897763 1.9037076324
H -2.2605551856 1.0451772315 1.5469346105
H -2.2086762801 -1.0742810238 -1.4292038462
H -2.0085672502 0.6758992284 -1.5779628656
H -3.1471362844 0.0065200256 -0.4101697213
*
