  27
        -44.04866536
 C         -2.7651299064       -1.3089461935       -2.0337458198
 C         -3.4871950508       -0.8681367695       -0.7653596217
 C         -2.5726324835       -0.8897185561        0.4620828590
 H         -2.1537478570       -1.8957910992        0.5720910213
 C         -3.3105369969       -0.5123418203        1.7424938415
 N         -1.3956493844       -0.0240308807        0.2638972156
 C         -0.1478976910       -0.6461561245        0.2485313660
 O         -0.0339864234       -1.8501684843        0.4052507203
 C          0.9759633145        0.2405242814        0.0372812238
 C          0.8314820723        1.5786890925       -0.1325242509
 N         -0.4399225140        2.0689571189       -0.0984258606
 C         -1.5802626767        1.3258450408        0.0899513549
 O         -2.6663237669        1.8749461958        0.0953691386
 C          1.9175513774        2.5645676405       -0.3523926808
 Br         2.6719154198       -0.6203541286        0.0172547055
 H         -2.3045247468       -2.2847697966       -1.8912875765
 H         -3.4657092056       -1.3728253156       -2.8613663275
 H         -1.9835670665       -0.6009000632       -2.3050414728
 H         -3.8961600875        0.1342833257       -0.8952622814
 H         -4.3142221992       -1.5490585147       -0.5639494160
 H         -3.7490414978        0.4775269411        1.6525972715
 H         -4.1014217278       -1.2335550396        1.9224811617
 H         -2.6281078023       -0.5252258561        2.5893454805
 H         -0.5893562034        3.0657768972       -0.2224361213
 H          1.7688067058        3.0709987170       -1.3039041970
 H          2.8884988381        2.0796437355       -0.3579318658
 H          1.8996608904        3.3141547669        0.4360466507
  27
        -44.04855521
 C         -2.7682334593       -1.3191444986       -2.0321471716
 C         -3.4917278995       -0.8787068620       -0.7644080783
 C         -2.5771226843       -0.8976546579        0.4630161591
 H         -2.1577924150       -1.9034024864        0.5746606647
 C         -3.3150172203       -0.5186041587        1.7428784500
 N         -1.4000822442       -0.0323265322        0.2630853644
 C         -0.1520678331       -0.6569814821        0.2453293810
 O         -0.0393968632       -1.8614686060        0.4003884327
 C          0.9665516972        0.2320396931        0.0342376775
 C          0.8218919917        1.5711428509       -0.1369060594
 N         -0.4455878832        2.0636210415       -0.1012645900
 C         -1.5852969170        1.3171040403        0.0902033049
 O         -2.6714508029        1.8659506906        0.0976162650
 C          1.9387489647        2.5254010659       -0.3449000722
 Br         2.6781403822       -0.5939855562        0.0173040725
 H         -3.4689196670       -1.3882741245       -2.8592323100
 H         -1.9901604395       -0.6080148127       -2.3055982488
 H         -2.3029037196       -2.2925096244       -1.8876591802
 H         -3.9027839384        0.1227661806       -0.8951853293
 H         -4.3173095663       -1.5612554537       -0.5625780000
 H         -4.1048950991       -1.2405389947        1.9245276771
 H         -2.6322705475       -0.5289935278        2.5895187751
 H         -3.7549342737        0.4705099802        1.6514642361
 H         -0.5988087914        3.0605912803       -0.2194088528
 H          2.4609934751        2.6890009124        0.5972455569
 H          1.5739809965        3.4773355904       -0.7158425235
 H          2.6624377324        2.1118593616       -1.0439408842
  27
        -44.04826777
 C         -3.0326089955       -0.6661270804        2.0505824192
 C         -3.0016436706       -1.4576378638        0.7478516767
 C         -2.7195569613       -0.5685562268       -0.4662349492
 H         -3.4821749524        0.2159885415       -0.5121810585
 C         -2.7296907690       -1.3518660695       -1.7750438089
 N         -1.4483706424        0.1623874950       -0.3064427672
 C         -0.2575820312       -0.5502337097       -0.2034479974
 O         -0.2233111383       -1.7663324496       -0.2559274645
 C          0.9276869687        0.2679047555       -0.0296241159
 C          0.8855853236        1.6214570472        0.0277255124
 N         -0.3434346844        2.2039769978       -0.0866908953
 C         -1.5277739294        1.5349078838       -0.2500920115
 O         -2.5742134931        2.1536410284       -0.3390974171
 C          2.0392356180        2.5373767982        0.2022382400
 Br         2.5480493938       -0.7174743334        0.1118512708
 H         -3.7251826753        0.1696298829        1.9727428012
 H         -3.3482927786       -1.3058050736        2.8697900057
 H         -2.0462699207       -0.2719662876        2.2906381554
 H         -2.2492611439       -2.2449004112        0.8061304529
 H         -3.9714706653       -1.9278845554        0.5846003305
 H         -3.7116066515       -1.7915321902       -1.9185729975
 H         -2.5169886335       -0.6909980627       -2.6123009073
 H         -1.9888029600       -2.1463220774       -1.7517269733
 H         -0.4171667003        3.2159254302       -0.0478943551
 H          2.1031905402        3.2152028568       -0.6464401841
 H          2.9683888281        1.9822421113        0.2823545014
 H          1.9038614330        3.1338088869        1.1021273489
  27
        -44.04813712
 C         -3.0156917633       -0.6746429253        2.0550004572
 C         -3.0020975749       -1.4636609589        0.7503803401
 C         -2.7257872466       -0.5735972667       -0.4644058110
 H         -3.4885700987        0.2110006526       -0.5060947240
 C         -2.7425263403       -1.3561308814       -1.7735310238
 N         -1.4535854229        0.1568285331       -0.3097881175
 C         -0.2622322340       -0.5580580686       -0.2111406741
 O         -0.2293104451       -1.7741617099       -0.2663688313
 C          0.9191358739        0.2617768780       -0.0384780028
 C          0.8780055254        1.6164206284        0.0185740406
 N         -0.3479455487        2.2004929382       -0.0906241561
 C         -1.5331988758        1.5284699896       -0.2486566288
 O         -2.5800013120        2.1477509049       -0.3299110397
 C          2.0547249955        2.5007520115        0.2051962679
 Br         2.5529020737       -0.6972100961        0.1139375114
 H         -3.3340724855       -1.3123363375        2.8746930308
 H         -2.0231884997       -0.2930209019        2.2900113476
 H         -3.6986468573        0.1695893777        1.9832529976
 H         -2.2540960171       -2.2556996520        0.8000160519
 H         -3.9763923105       -1.9273464036        0.5951213846
 H         -3.7255905951       -1.7945348442       -1.9131020234
 H         -2.5326706353       -0.6949971256       -2.6112477979
 H         -2.0024129769       -2.1513951212       -1.7539071536
 H         -0.4266489328        3.2117666776       -0.0444611946
 H          1.8349096672        3.5119977790       -0.1206368791
 H          2.9091918160        2.1152199982       -0.3458833696
 H          2.3326904711        2.5237060955        1.2584611077
  27
        -44.04772245
 C         -4.2703768607       -1.9512481085       -1.3474121107
 C         -3.2981877985       -0.7905545935       -1.1763434504
 C         -2.4835139097       -0.9109228513        0.1155300183
 H         -2.0583147556       -1.9189544178        0.1713082802
 C         -3.3006663195       -0.6418264298        1.3739103308
 N         -1.3082395000       -0.0192866263        0.0683221798
 C         -0.0513887101       -0.6205033997        0.1213596750
 O          0.0717527009       -1.8312088695        0.2018594937
 C          1.0677297889        0.2952151478        0.0739500184
 C          0.9105525093        1.6397876960       -0.0166897277
 N         -0.3688508927        2.1078921359       -0.0628665478
 C         -1.5052184527        1.3372595802       -0.0262331633
 O         -2.5996073268        1.8665290786       -0.0765387302
 C          1.9908540237        2.6544416274       -0.0700696686
 Br         2.7763405467       -0.5360476041        0.1491911715
 H         -5.0251415874       -1.9452975273       -0.5669195664
 H         -4.7725248293       -1.8708882748       -2.3074318387
 H         -3.7402141196       -2.9002495080       -1.3131258553
 H         -2.6024976211       -0.7813851785       -2.0197948394
 H         -3.8415152066        0.1547904418       -1.1753216808
 H         -2.6632026347       -0.6995197808        2.2535491165
 H         -3.7575559682        0.3428875173        1.3278496032
 H         -4.0793913978       -1.3914568316        1.4644232220
 H         -0.5271221462        3.1087408755       -0.1315450202
 H          1.8985748168        3.3350503757        0.7739135586
 H          1.9048027534        3.2368905448       -0.9850191175
 H          2.9687116720        2.1844990674       -0.0397525875
  27
        -44.04761124
 C         -4.2776652522       -1.9569408422       -1.3456861451
 C         -3.2971748811       -0.8026383989       -1.1792301796
 C         -2.4873357041       -0.9194380105        0.1159441473
 H         -2.0616365100       -1.9270568154        0.1755653059
 C         -3.3088476484       -0.6483244694        1.3710037037
 N         -1.3121278523       -0.0275405883        0.0696954069
 C         -0.0544632264       -0.6306333013        0.1206500250
 O          0.0678187883       -1.8415832203        0.2006146793
 C          1.0594472837        0.2872398703        0.0706532591
 C          0.9020315002        1.6327313208       -0.0225392237
 N         -0.3739138156        2.1026874906       -0.0633129495
 C         -1.5097989755        1.3283638451       -0.0238210263
 O         -2.6042895424        1.8576439574       -0.0722459719
 C          2.0110620118        2.6169429705       -0.0684093071
 Br         2.7820725792       -0.5109235541        0.1493579797
 H         -5.0368097283       -1.9378744286       -0.5696853429
 H         -4.7736750768       -1.8810171988       -2.3092895773
 H         -3.7552370952       -2.9097435061       -1.2999980563
 H         -2.5985698394       -0.8045672367       -2.0203339297
 H         -3.8335059938        0.1466429561       -1.1865715257
 H         -3.7699624615        0.3340916970        1.3197011848
 H         -4.0843391244       -1.4010914970        1.4628264797
 H         -2.6734548988       -0.6993696352        2.2524978982
 H         -0.5370896635        3.1030879502       -0.1272557619
 H          2.4265582010        2.7478443500        0.9302710849
 H          1.6634019158        3.5775502003       -0.4334069133
 H          2.8141511537        2.2510638826       -0.7042193721
  27
        -44.04733436
 C         -4.3627331591       -1.8651407363        0.8239450789
 C         -2.9041933952       -1.4290400944        0.7623468549
 C         -2.6399690402       -0.4829199379       -0.4135356975
 H         -3.4062572516        0.2995433043       -0.4141896692
 C         -2.6410968911       -1.1852168253       -1.7666210602
 N         -1.3695809045        0.2433947653       -0.2165585063
 C         -0.1797284948       -0.4748099394       -0.1379149628
 O         -0.1508115969       -1.6887147911       -0.2258420345
 C          1.0074239428        0.3352373221        0.0553506989
 C          0.9681542799        1.6866357803        0.1537395227
 N         -0.2601608649        2.2749541711        0.0619745876
 C         -1.4459312306        1.6138875731       -0.1203203496
 O         -2.4921253412        2.2357140843       -0.1888493816
 C          2.1243106246        2.5945736023        0.3508136378
 Br         2.6259047042       -0.6561320194        0.1600303652
 H         -4.5260128715       -2.4767853124        1.7068691910
 H         -5.0169484235       -0.9981207237        0.8773674091
 H         -4.6310008257       -2.4510196085       -0.0500283247
 H         -2.6490278859       -0.9055545732        1.6877827831
 H         -2.2565044996       -2.3024563081        0.6799395034
 H         -1.9018873094       -1.9816221620       -1.7842820781
 H         -3.6222599754       -1.6093073053       -1.9512031798
 H         -2.4175208051       -0.4735137468       -2.5583568964
 H         -0.3310857498        3.2855618619        0.1311382034
 H          2.1899494835        3.2934797128       -0.4804779096
 H          3.0519600153        2.0350696403        0.4162823273
 H          1.9908411246        3.1684915968        1.2654287017
  27
        -44.04718593
 C         -4.3624545721       -1.8849498817        0.8196390282
 C         -2.9076275505       -1.4361251973        0.7631952167
 C         -2.6464084140       -0.4895284205       -0.4129347096
 H         -3.4127516508        0.2928384933       -0.4113634977
 C         -2.6507655732       -1.1907235763       -1.7665806340
 N         -1.3752087995        0.2361488850       -0.2176794389
 C         -0.1846827657       -0.4845228569       -0.1441075568
 O         -0.1565995574       -1.6982465350       -0.2366006822
 C          0.9973509056        0.3279737489        0.0488525917
 C          0.9587793801        1.6805043418        0.1479013670
 N         -0.2655576441        2.2706933546        0.0610440965
 C         -1.4519205068        1.6058033626       -0.1178464505
 O         -2.4984477498        2.2277511956       -0.1810439916
 C          2.1441003038        2.5491594447        0.3528112927
 Br         2.6337756138       -0.6291361526        0.1631044961
 H         -4.6216365373       -2.4752079087       -0.0541377308
 H         -4.5237080574       -2.4961200379        1.7033264317
 H         -5.0245081810       -1.0235961532        0.8685074155
 H         -2.6606894107       -0.9088647210        1.6887440599
 H         -2.2523393458       -2.3042021911        0.6845816751
 H         -1.9203585617       -1.9951104178       -1.7826831942
 H         -3.6360457489       -1.6031741149       -1.9553842026
 H         -2.4163015285       -0.4807760332       -2.5566623421
 H         -0.3418938551        3.2804881966        0.1360204620
 H          1.8960113430        3.5926687393        0.1919584810
 H          2.9457514125        2.2551500523       -0.3216043648
 H          2.5200784371        2.4248960628        1.3677252926
  27
        -44.04344985
 C         -3.5174529442       -0.5736835527       -1.8108114827
 C         -3.0037414889       -1.5838241293       -0.7924010459
 C         -2.4853868818       -0.9876813378        0.5253915258
 H         -2.0229853159       -1.8122218861        1.0827103154
 C         -3.5769010824       -0.3915508131        1.4036935351
 N         -1.3608846291       -0.0629781232        0.2776101651
 C         -0.0985041072       -0.6608201748        0.2686917955
 O          0.0325566813       -1.8615160085        0.4421401291
 C          1.0136177266        0.2368594328        0.0530483526
 C          0.8479349186        1.5669580273       -0.1554012190
 N         -0.4330498460        2.0289487025       -0.1589215209
 C         -1.5691020041        1.2722934722        0.0239648928
 O         -2.6562671853        1.8111542304       -0.0432311235
 C          1.9186603830        2.5668945398       -0.3860062324
 Br         2.7234052775       -0.5959348833        0.0766324315
 H         -3.9419681260       -1.1000047562       -2.6616920860
 H         -4.2832879853        0.0641180103       -1.3798372136
 H         -2.7128802347        0.0625425426       -2.1739307556
 H         -3.8049259102       -2.2770007626       -0.5342474124
 H         -2.1932964316       -2.1655549658       -1.2398405475
 H         -4.1397146902        0.3783950703        0.8881439003
 H         -4.2511507523       -1.1911295861        1.6962110498
 H         -3.1422612054        0.0421663117        2.3012066504
 H         -0.6022529658        3.0154262696       -0.3313693225
 H          2.8996351630        2.1055452351       -0.3330295351
 H          1.8545881008        3.3546523665        0.3615383555
 H          1.7940234735        3.0207678680       -1.3671543214
  27
        -44.04333372
 C         -3.5285561803       -0.5809988051       -1.8074494840
 C         -3.0086598703       -1.5915056151       -0.7925422240
 C         -2.4897978635       -0.9973889178        0.5259939850
 H         -2.0271043554       -1.8230861498        1.0813489364
 C         -3.5806035544       -0.4030897608        1.4064220189
 N         -1.3649878505       -0.0725771722        0.2797941995
 C         -0.1014371427       -0.6721051293        0.2736829575
 O          0.0286926800       -1.8729036515        0.4478639306
 C          1.0046271810        0.2286110436        0.0592508833
 C          0.8384483401        1.5598278483       -0.1492582569
 N         -0.4387519423        2.0232302018       -0.1558931737
 C         -1.5742407010        1.2616410222        0.0249418446
 O         -2.6617739061        1.7993761860       -0.0452211132
 C          1.9410789142        2.5244991758       -0.3827195085
 Br         2.7302815594       -0.5674003713        0.0706260562
 H         -4.2954232772        0.0531656047       -1.3730752078
 H         -2.7273395337        0.0589404826       -2.1715102205
 H         -3.9536471614       -1.1070601592       -2.6582281293
 H         -3.8066279709       -2.2884443526       -0.5344860017
 H         -2.1969518380       -2.1690897935       -1.2430574355
 H         -4.1414249729        0.3704490016        0.8941818419
 H         -4.2567631759       -1.2025229962        1.6947633044
 H         -3.1454643823        0.0254085338        2.3061748099
 H         -0.6129220383        3.0080731443       -0.3327237768
 H          2.3690446938        2.3612555092       -1.3712420041
 H          2.7387119455        2.3637206220        0.3396490681
 H          1.5861484771        3.5471547038       -0.3141054538
  27
        -44.04332786
 C         -3.8883506151       -0.6303296701       -1.6923335338
 C         -3.0083284151       -1.5722140496       -0.8796397912
 C         -2.4651571058       -1.0138326339        0.4448453538
 H         -1.9872159636       -1.8555955524        0.9615139624
 C         -3.5322454861       -0.4430302937        1.3679503783
 N         -1.3427446531       -0.0789117978        0.2130773562
 C         -0.0733165189       -0.6632977781        0.2391075535
 O          0.0670474676       -1.8635897235        0.4078426207
 C          1.0354400731        0.2470941028        0.0645130227
 C          0.8638991913        1.5778708140       -0.1343964447
 N         -0.4209775070        2.0263863156       -0.1770078094
 C         -1.5531120166        1.2553306921       -0.0409864693
 O         -2.6435347742        1.7822834789       -0.1499240242
 C          1.9333940723        2.5874243939       -0.3237876343
 Br         2.7524784646       -0.5675799859        0.1301883327
 H         -3.3764841896        0.3007025959       -1.9175869368
 H         -4.1599859446       -1.1096437915       -2.6294976152
 H         -4.7998828890       -0.3933330350       -1.1522664126
 H         -3.5815582729       -2.4683626121       -0.6364556521
 H         -2.1518417922       -1.8883649075       -1.4815203244
 H         -4.2567586009       -1.2250329567        1.5746626441
 H         -3.0835752952       -0.1266221055        2.3068377249
 H         -4.0387207121        0.4057327239        0.9220971034
 H         -0.5954027491        3.0117783761       -0.3507803735
 H          1.7595444817        3.4406099020        0.3271846002
 H          1.9265184521        2.9395621061       -1.3539409734
 H          2.9093344548        2.1634188392       -0.1093824481
  27
        -44.04331443
 C         -4.0258932578       -0.6238415521       -1.6341101480
 C         -3.0254510256       -1.5395570427       -0.9379803608
 C         -2.4573261984       -1.0310261513        0.3971797978
 H         -1.9736352251       -1.8907482258        0.8767196748
 C         -3.5044162662       -0.4846222248        1.3573783301
 N         -1.3339744932       -0.0918610788        0.1837561367
 C         -0.0611343532       -0.6674672964        0.2320050569
 O          0.0862007042       -1.8657086017        0.4089414576
 C          1.0441299790        0.2495529214        0.0682649713
 C          0.8670458529        1.5780590241       -0.1404095931
 N         -0.4200296859        2.0185285546       -0.1999829339
 C         -1.5481188015        1.2412845898       -0.0719453367
 O         -2.6410954749        1.7616882617       -0.1888716402
 C          1.9318048043        2.5939502491       -0.3223622176
 Br         2.7647560537       -0.5545074822        0.1623829041
 H         -4.2786522877       -1.0393990469       -2.6063299166
 H         -4.9381712389       -0.5400428668       -1.0512280280
 H         -3.6220609603        0.3736253487       -1.7781726562
 H         -3.5094458483       -2.4968101713       -0.7363113332
 H         -2.1809376821       -1.7392564715       -1.6033066398
 H         -4.2405182944       -1.2621788941        1.5380295475
 H         -3.0396425737       -0.2182032897        2.3039807173
 H         -4.0003113162        0.3910874276        0.9534163118
 H         -0.5983297047        3.0025614938       -0.3775757406
 H          1.9155290253        2.9624581372       -1.3466607830
 H          2.9107977038        2.1706419309       -0.1208306873
 H          1.7595754082        3.4362851578        0.3433296096
  27
        -44.04319238
 C         -4.0327860785       -0.6319100376       -1.6315988206
 C         -3.0325840359       -1.5483369975       -0.9361145871
 C         -2.4617441692       -1.0404069009        0.3981140366
 H         -1.9774447274       -1.9006319529        0.8762141813
 C         -3.5068545642       -0.4940175273        1.3605371310
 N         -1.3381544987       -0.1017247984        0.1837187799
 C         -0.0643878402       -0.6794445412        0.2332033583
 O          0.0817851954       -1.8778896346        0.4104972210
 C          1.0346794702        0.2404381704        0.0701655816
 C          0.8572120461        1.5700219713       -0.1388050816
 N         -0.4258944198        2.0120895901       -0.2016554492
 C         -1.5533379456        1.2304243640       -0.0727047263
 O         -2.6464997001        1.7502623038       -0.1900145487
 C          1.9546771335        2.5524942689       -0.3138438465
 Br         2.7712041316       -0.5256824468        0.1587482197
 H         -3.6260033702        0.3633889046       -1.7819591364
 H         -4.2914529006       -1.0508475688       -2.6008056553
 H         -4.9420341440       -0.5421679870       -1.0449125950
 H         -3.5177739606       -2.5047050938       -0.7331423108
 H         -2.1893595216       -1.7496506673       -1.6025365484
 H         -4.0015379184        0.3835838453        0.9591264034
 H         -4.2442534098       -1.2705813042        1.5400570126
 H         -3.0406374062       -0.2307542812        2.3073032520
 H         -0.6090382919        2.9950860698       -0.3800405667
 H          1.5757268300        3.5686243362       -0.3008498057
 H          2.4630139789        2.3719469016       -1.2602854988
 H          2.6963306023        2.4279443264        0.4727989229
  27
        -44.04284258
 C         -2.5834448567       -1.7458363182        1.7013863820
 C         -3.4042466097       -0.7832998332        0.8518571347
 C         -2.7741562819       -0.3863090007       -0.4920211218
 H         -3.3930503708        0.4201553874       -0.9043633995
 C         -2.7453801630       -1.5131846289       -1.5159094497
 N         -1.4571600997        0.2529790444       -0.2866376237
 C         -0.2801873826       -0.4901556231       -0.2181654916
 O         -0.2560952739       -1.7029411910       -0.2995606181
 C          0.9258863873        0.3015647318       -0.0413460484
 C          0.9161704472        1.6482777358        0.1007447317
 N         -0.3050364434        2.2573212770        0.0633153167
 C         -1.5028840360        1.6195226322       -0.1147251223
 O         -2.5409637523        2.2597005156       -0.1233209188
 C          2.0925026702        2.5303559311        0.2971191094
 Br         2.5269040513       -0.7234046914        0.0029445683
 H         -2.3326752987       -2.6454850558        1.1468854281
 H         -1.6545370250       -1.2853775464        2.0333233119
 H         -3.1520648884       -2.0297215156        2.5831023770
 H         -4.3716513415       -1.2340771206        0.6287963265
 H         -3.5858830535        0.1323038344        1.4206224142
 H         -2.2374563540       -2.3943370794       -1.1398787027
 H         -3.7703584654       -1.7725057340       -1.7646741554
 H         -2.2401132529       -1.1861000476       -2.4218669933
 H         -0.3615167850        3.2643402088        0.1796425463
 H          1.9986490299        3.0666623007        1.2391727236
 H          2.1415317677        3.2627607346       -0.5059870603
 H          3.0125779992        1.9547817739        0.3081191258
  27
        -44.04267806
 C         -2.5865762075       -1.7448221018        1.7046206016
 C         -3.4112223404       -0.7906523538        0.8493999829
 C         -2.7803423601       -0.3970664186       -0.4951406158
 H         -3.3989073881        0.4081928732       -0.9102737475
 C         -2.7511127738       -1.5269797367       -1.5156712995
 N         -1.4631711661        0.2422929281       -0.2903374536
 C         -0.2854684250       -0.5030031819       -0.2222251029
 O         -0.2617966040       -1.7159399909       -0.3031724165
 C          0.9141519792        0.2928091582       -0.0463151286
 C          0.9041210970        1.6408335581        0.0946434321
 N         -0.3127142733        2.2511911325        0.0588919310
 C         -1.5103684327        1.6080028664       -0.1168699882
 O         -2.5491813342        2.2470122911       -0.1224397934
 C          2.1116354649        2.4804578113        0.2927542326
 Br         2.5370936014       -0.6930772451        0.0085204838
 H         -2.3272547204       -2.6442035476        1.1536732766
 H         -1.6622323975       -1.2765211229        2.0383391001
 H         -3.1561271393       -2.0301876560        2.5852197756
 H         -4.3758546361       -1.2474517718        0.6267322853
 H         -3.5984005245        0.1266261550        1.4135997995
 H         -2.2479938995       -2.4088489361       -1.1349086312
 H         -3.7759701216       -1.7833242224       -1.7680069719
 H         -2.2408682575       -1.2045141795       -2.4204631317
 H         -0.3750933826        3.2576241370        0.1773215358
 H          2.8449581641        2.2666462036       -0.4827756375
 H          2.5788920346        2.2370823381        1.2461096533
 H          1.8617089680        3.5356217179        0.2754691334
  27
        -44.04263670
 C         -2.8351530347       -2.2220121375        1.3394472274
 C         -3.3732372729       -0.8765948196        0.8666599428
 C         -2.7715232658       -0.3246511203       -0.4353379603
 H         -3.3986241858        0.5257619762       -0.7291279088
 C         -2.7580347599       -1.3166628573       -1.5900017470
 N         -1.4474385069        0.2958905044       -0.2009677085
 C         -0.2731611343       -0.4531328105       -0.1814588748
 O         -0.2609746787       -1.6647194134       -0.2905860739
 C          0.9433063966        0.3236631604       -0.0175613691
 C          0.9464772517        1.6649102692        0.1702309496
 N         -0.2719175425        2.2795707637        0.1932357207
 C         -1.4783116564        1.6561632678        0.0221191536
 O         -2.5104438614        2.3045993328        0.0641345486
 C          2.1334560862        2.5342680740        0.3573913111
 Br         2.5381454191       -0.7108816246       -0.0576724322
 H         -1.7545160812       -2.2066626427        1.4465699724
 H         -3.2725552826       -2.4675219056        2.3040129716
 H         -3.0938882719       -3.0086650574        0.6371353783
 H         -4.4489147767       -0.9669500280        0.7068142249
 H         -3.2226357903       -0.1242991584        1.6454510689
 H         -2.3808801624       -0.8367512566       -2.4904669231
 H         -2.1390262552       -2.1802042936       -1.3722446210
 H         -3.7774350800       -1.6442959795       -1.7707153624
 H         -0.3194775880        3.2820114641        0.3476513241
 H          2.1630727175        3.2896248072       -0.4252231788
 H          3.0498804849        1.9537636705        0.3238217226
 H          2.0710110557        3.0434000587        1.3169267666
  27
        -44.04246607
 C         -2.8498008582       -2.2603207479        1.3115017670
 C         -3.3709468132       -0.8966068124        0.8728934363
 C         -2.7790641187       -0.3299810827       -0.4276115717
 H         -3.4088910502        0.5226500555       -0.7085055352
 C         -2.7714698183       -1.3098405963       -1.5926500658
 N         -1.4537222443        0.2897416168       -0.1963164897
 C         -0.2790976764       -0.4621335502       -0.1846299967
 O         -0.2687294827       -1.6734355585       -0.2990442532
 C          0.9320341372        0.3167238435       -0.0207653928
 C          0.9365231653        1.6583843151        0.1726951364
 N         -0.2767880485        2.2752281581        0.2025664976
 C         -1.4839778124        1.6486016987        0.0317753072
 O         -2.5155792840        2.2974967013        0.0791248571
 C          2.1558569393        2.4827450620        0.3604143884
 Br         2.5486601491       -0.6800700333       -0.0597894606
 H         -3.2685065841       -2.5121724343        2.2827118115
 H         -3.1428195432       -3.0299098219        0.6035977596
 H         -1.7667281478       -2.2690316245        1.3912215519
 H         -4.4504009193       -0.9655134030        0.7283088208
 H         -3.1958511618       -0.1621814862        1.6635108231
 H         -2.4027614520       -0.8192209092       -2.4908732269
 H         -2.1481832502       -2.1736067933       -1.3882923101
 H         -3.7911841200       -1.6388309933       -1.7689659390
 H         -0.3292031436        3.2765311234        0.3627551873
 H          2.8511777993        2.3097278423       -0.4591485600
 H          2.6659473894        2.1861263145        1.2758808589
 H          1.9109593797        3.5379195796        0.4119732852
