  12
        -28.03104070
 C         -0.9272408982        1.0440753071        0.0000532296
 C          0.4343039721        1.3062307611        0.0001574160
 C          1.3678365775        0.2810223418        0.0001987540
 C          0.9140903325       -1.0292096508        0.0002669267
 C         -0.4405308495       -1.3250723754        0.0000977191
 C         -1.3483371976       -0.2770090378       -0.0000335759
 Cl        -3.0336788281       -0.6232433352       -0.0000480459
 Cl         2.0565683851       -2.3155761346       -0.0001146128
 Cl         0.9770669935        2.9388127006       -0.0000925309
 H         -1.6428984746        1.8496875133        0.0000818479
 H          2.4234402212        0.4977768130        0.0000415848
 H         -0.7804665120       -2.3476712632        0.0000288242
