  24
        -25.31008857
 C         -3.5960848108        0.0203418541       -0.2432026044
 C         -2.2385633094        0.3266717074        0.3776618191
 C         -1.1319127508       -0.5316778510       -0.2314874905
 C          0.2384802000       -0.2515616938        0.3804765437
 C          1.3177509277       -1.2213513107       -0.1139004455
 C          2.6163086518       -0.4663026968        0.1414135836
 C          2.2800439213        0.9548960090       -0.3092907076
 C          0.7948817101        1.1472719371        0.0435623492
 H         -4.3714402825        0.6376624941        0.2047541078
 H         -3.5787212417        0.2148201695       -1.3135351847
 H         -3.8584249626       -1.0245180723       -0.0908578716
 H         -2.0038327893        1.3826971501        0.2312394558
 H         -2.2829245627        0.1444091424        1.4539733897
 H         -1.3772908750       -1.5861392684       -0.0789717839
 H         -1.0888657003       -0.3560235325       -1.3094177480
 H          0.1572191798       -0.3509246404        1.4679435635
 H          1.2775120244       -2.1818665340        0.3984147317
 H          1.1949969016       -1.3957610450       -1.1846284571
 H          2.8471006448       -0.4789051618        1.2080659890
 H          3.4641011459       -0.8854695147       -0.3992279492
 H          2.9159543346        1.6986934143        0.1692194406
 H          2.4226562026        1.0372920296       -1.3876641643
 H          0.6779582234        1.8221060134        0.8910153898
 H          0.2565025717        1.5806666826       -0.7993586617
