! pbe def2-sv(p) def2/J RI DEFGRID1 loosescf d4 GCP(DFT/SV(P)) printgap
%output
    printlevel normal
end
* xyz 0 1
C -2.056943641 1.1709369175 0.7648249887
C -1.9400428175 0.0040952171 -0.205698612
C -0.538607187 -0.5225235232 -0.3843623649
O -0.2581649755 -1.4220473303 -1.1554255617
O 0.347004052 0.0883024744 0.3827634542
C 1.7284494166 -0.3017511223 0.3137982373
C 2.5953272417 0.9443890816 0.2611173528
H -1.7076921565 0.8835305235 1.7523136835
H -1.4616185226 2.0130350091 0.4238363242
H -3.0950141829 1.4821675425 0.8364564192
H -2.3020731185 0.2825941787 -1.1978029194
H -2.5505524719 -0.838985081 0.1262088715
H 1.9392422801 -0.8882889784 1.212461681
H 1.8688127551 -0.9329432178 -0.5692595266
H 2.3807737671 1.5168949611 -0.6370917282
H 2.4016220701 1.5670278195 1.1294044459
H 3.6404611954 0.652750739 0.2548830306
*
