! r2scan-3c def2/J RI DEFGRID2 scfconv6 printgap
%output
    printlevel normal
end
* xyz 0 1
C -2.6368836093 0.022183556 -0.8359040028
C -2.0024897439 -0.3701961004 0.4927694082
C -0.7698552455 0.4777529481 0.8295182839
C 0.4333369633 0.1279482531 -0.0069018623
O 0.4466265559 -0.0759669054 -1.201954325
O 1.5331182981 0.0713543791 0.7423260048
C 2.7674436802 -0.2255063917 0.0843509579
H -3.4885003331 -0.6178730532 -1.0509092856
H -2.9787246165 1.0540802345 -0.8048708225
H -1.9146642456 -0.0786607517 -1.6417069854
H -1.7168847121 -1.4234191074 0.4630147914
H -2.7317980593 -0.2423135964 1.2939082746
H -0.4878515916 0.3581899101 1.8753150778
H -0.9984689046 1.5306139881 0.64925803
H 2.7073400657 -1.2020285613 -0.3975405437
H 3.5232070541 -0.2198341393 0.8631658557
H 2.9776426666 0.5309528517 -0.6726111098
*
