! pbe def2-sv(p) def2/J RI DEFGRID1 loosescf d4 GCP(DFT/SV(P)) printgap
%output
    printlevel normal
end
* xyz 0 1
C -2.3852065451 0.1347720106 -0.1403440376
C -0.9577158566 0.3753769243 0.3342294268
N -0.0705850048 -0.6325816452 -0.2214674353
C 1.2987616276 -0.5838873704 0.2550972368
C 2.113274462 0.6400727315 -0.1794185983
H -2.4515491187 0.2530865047 -1.2193667051
H -2.6950005528 -0.8738258973 0.1163977341
H -3.0597028471 0.8447834829 0.3299283885
H -0.9107025319 0.2825566864 1.4238131176
H -0.6587481556 1.4052252635 0.0720351037
H -0.0803724015 -0.5670972194 -1.2352494167
H 1.2673266144 -0.633370779 1.3473956029
H 1.7922555056 -1.4893348689 -0.10978424
H 3.1356666151 0.5474843243 0.1757876773
H 2.1286216773 0.7182575729 -1.2650108469
H 1.6895130157 1.5543110168 0.2294884245
*
