  15
        -16.90871951
 C          2.8090383557       -0.4446916044        0.1555205614
 C          1.4056803665       -0.2744747196       -0.4119572957
 C          0.6334209505        0.8256488030        0.3121710091
 C         -0.7787767629        0.9972891876       -0.2237970300
 S         -1.8296215408       -0.4820630247        0.0325252883
 H          3.3403616040       -1.2305713203       -0.3750719269
 H          2.7649123141       -0.7108989153        1.2091033844
 H          3.3743871427        0.4795469309        0.0582492911
 H          0.8584248371       -1.2157331584       -0.3217106572
 H          1.4681709668       -0.0297168461       -1.4750632124
 H          1.1565675586        1.7774491893        0.1915347382
 H          0.5935432801        0.5986067845        1.3800567817
 H         -1.2864684091        1.8387820792        0.2458563374
 H         -0.7736143378        1.1404992427       -1.3042352741
 H         -1.7830329074       -0.4651586728        1.3592351641
  15
        -16.90857214
 C          3.0839069824       -0.4311004608        0.1710696407
 C          1.8895760085        0.3168866218       -0.4092249671
 C          0.5699858817       -0.2209432716        0.1426389106
 C         -0.6163304051        0.5195875622       -0.4508078843
 S         -2.2128695573       -0.0385983223        0.2514964733
 H          3.1068298172       -0.3301397704        1.2536124844
 H          4.0123838547       -0.0344835678       -0.2313955437
 H          3.0268036477       -1.4891999854       -0.0733920882
 H          1.8915857783        0.2187620113       -1.4969857192
 H          1.9740356017        1.3794344857       -0.1715870449
 H          0.5541423091       -0.1126282318        1.2294161387
 H          0.4879391594       -1.2855855022       -0.0882003744
 H         -0.5730244096        1.5830021515       -0.2154483612
 H         -0.6694623617        0.3973132191       -1.5320933818
 H         -2.1273789175       -1.2962723391       -0.1645137909
  15
        -16.90787768
 C          2.6387700121       -0.8147053876       -0.0348715711
 C          1.9792843534        0.5383956920       -0.2782609346
 C          0.5693308851        0.6343190340        0.3079436743
 C         -0.4138346239       -0.2882687373       -0.3940345533
 S         -2.1398497427        0.0081690799        0.1424821841
 H          2.6495444932       -1.0473489848        1.0275143083
 H          3.6653724628       -0.8000801842       -0.3923284316
 H          2.1109020306       -1.6077280487       -0.5579916954
 H          1.9377874172        0.7364284243       -1.3515013540
 H          2.5912541043        1.3184089228        0.1789478955
 H          0.2113824599        1.6621845028        0.2114689241
 H          0.6010501061        0.3897840551        1.3721956500
 H         -0.4276997937       -0.1014420951       -1.4679369463
 H         -0.1956729728       -1.3393797016       -0.2153354868
 H         -1.9528148722       -0.3017399748        1.4194899537
  15
        -16.90781737
 C          2.3288621009       -0.5181702883        0.5784625452
 C          1.4881250734       -0.1592678653       -0.6415071271
 C          0.5832834301        1.0518038787       -0.4125642472
 C         -0.5613706685        0.7872836141        0.5537982238
 S         -1.7071228738       -0.5190683990       -0.0279196804
 H          1.7015595216       -0.8344483975        1.4083726252
 H          2.9218315197        0.3358557816        0.8989551671
 H          3.0043874153       -1.3358832803        0.3397916908
 H          0.8730094748       -1.0170285873       -0.9232224853
 H          2.1538508019        0.0608775051       -1.4782492378
 H          0.1688530918        1.3731417070       -1.3710248162
 H          1.1756962350        1.8770329498       -0.0100546843
 H         -0.1996063673        0.4234135749        1.5139279007
 H         -1.1539962414        1.6864598924        0.7181183015
 H         -2.0830595743        0.1009287192       -1.1401423704
  15
        -16.90781216
 C          2.6161601769       -0.8386049610       -0.1015103796
 C          1.9940532466        0.5515181918       -0.1718182755
 C          0.5690940455        0.6049593875        0.3830979308
 C         -0.4177513006       -0.1607244428       -0.4830026605
 S         -2.1243484931       -0.0795379522        0.1757985657
 H          2.5852412637       -1.2179714185        0.9174288253
 H          3.6544301180       -0.8007142894       -0.4215770099
 H          2.0902297937       -1.5381095939       -0.7461005026
 H          1.9901921633        0.8973668300       -1.2077436507
 H          2.6093088800        1.2432089296        0.4068506602
 H          0.2522426014        1.6490843926        0.4418041202
 H          0.5522099290        0.1940684681        1.3949272383
 H         -0.4381013405        0.2196155897       -1.5039588581
 H         -0.1925792097       -1.2259343320       -0.5014889323
 H         -2.2622699053        1.2370652502        0.0748145911
  15
        -16.90769555
 C          2.8646415364       -0.3782773398       -0.0806833168
 C          1.4190919650       -0.3506600695        0.4007675444
 C          0.6450596551        0.8097469833       -0.2205953350
 C         -0.7729370604        0.9432810926        0.3137934124
 S         -1.8827135620       -0.4211726182       -0.2055541780
 H          3.3980088163       -1.2142566592        0.3645665607
 H          3.3763222196        0.5416969063        0.1930460446
 H          2.9031997352       -0.4828284766       -1.1625838173
 H          1.4005286580       -0.2559356285        1.4891465082
 H          0.9371030169       -1.2934563571        0.1339380212
 H          0.6088868881        0.6848322674       -1.3051168569
 H          1.1685970208        1.7452420375       -0.0079019069
 H         -0.7932306152        0.9842280538        1.4015783425
 H         -1.2510992122        1.8369461062       -0.0866753431
 H         -1.3767543992       -1.3512313956        0.5944092482
  15
        -16.90677105
 C          2.3243759935       -0.5006012444        0.5722082296
 C          1.5234551003       -0.1246227410       -0.6695872669
 C          0.5689101950        1.0482794535       -0.4429115514
 C         -0.5518889001        0.7715002318        0.5489178201
 S         -1.7533459573       -0.4845221263       -0.0355541281
 H          2.8694264312        0.3625700599        0.9478590956
 H          3.0420651130       -1.2810262824        0.3317013642
 H          1.6794525860       -0.8709174444        1.3649974390
 H          0.9593392849       -0.9907186870       -1.0221749606
 H          2.2167947812        0.1557469554       -1.4651410592
 H          0.1230913130        1.3317153843       -1.3991254290
 H          1.1355475180        1.9048174880       -0.0691937536
 H         -0.1770093368        0.4419562342        1.5151273687
 H         -1.1565947718        1.6669044622        0.6921212652
 H         -0.9683825874       -1.5418062886        0.1320797456
  15
        -16.90671093
 C          3.0724839019       -0.4652127583        0.1790347428
 C          1.8930246245        0.2923686452       -0.4184959813
 C          0.5636565951       -0.2057468513        0.1456412283
 C         -0.6106269912        0.5521347342       -0.4496270105
 S         -2.1817448851       -0.0947644940        0.2575827553
 H          4.0084731715       -0.0987730792       -0.2344656325
 H          2.9919754725       -1.5278203197       -0.0382172419
 H          3.0991070443       -0.3380652621        1.2588165859
 H          1.8923191194        0.1686873020       -1.5035940288
 H          1.9981254924        1.3581361482       -0.2044392375
 H          0.5557238210       -0.0847800909        1.2319195982
 H          0.4487778377       -1.2714041114       -0.0685688153
 H         -0.5547933237        1.6130294008       -0.2082558182
 H         -0.6569921711        0.4159453498       -1.5294982811
 H         -2.9865229121        0.7117421423       -0.4221886667
  15
        -16.90669621
 C          2.8156519183       -0.4359499893       -0.0903422329
 C          1.3885168338       -0.3235038717        0.4298370025
 C          0.6420003376        0.8408621603       -0.2175638558
 C         -0.7800455587        0.9808354149        0.2988140235
 S         -1.7923407048       -0.4770993187       -0.1987909676
 H          3.3272529630       -1.2709214637        0.3812687468
 H          3.3713129760        0.4745011030        0.1228680414
 H          2.8172290604       -0.5952586781       -1.1663168079
 H          1.4041669226       -0.1833065270        1.5133103157
 H          0.8509544151       -1.2524703528        0.2231486236
 H          0.6184229865        0.6995003126       -1.3010225134
 H          1.1729663671        1.7733742178       -0.0110145366
 H         -0.7979454002        1.0313969238        1.3870449147
 H         -1.2611238784        1.8601201663       -0.1265457440
 H         -2.9373680321       -0.0171848972        0.2875877579
  15
        -16.90632434
 C          1.8290459625       -0.9859249641        0.0021238447
 C          1.7922074172        0.5068920722       -0.3033393493
 C          0.5637965339        1.2232354813        0.2603777303
 C         -0.7490186611        0.8607701990       -0.4231671097
 S         -1.5200327826       -0.6933654385        0.1710729432
 H          2.7577741381       -1.4194926487       -0.3613358308
 H          1.0030476998       -1.5056433175       -0.4759500774
 H          1.7658453307       -1.1580882258        1.0743170953
 H          1.8284001544        0.6570714822       -1.3850187667
 H          2.6818084754        0.9751966895        0.1241511183
 H          0.7073584958        2.2989813556        0.1311036227
 H          0.4874370102        1.0255201334        1.3316800011
 H         -1.4930184651        1.6433355825       -0.2789942418
 H         -0.6055682387        0.7041206230       -1.4919537266
 H         -1.7216726601       -0.2885762373        1.4189330623
  15
        -16.90599813
 C          2.6353728469       -0.8071135479       -0.1022486319
 C          1.9857237260        0.5714177531       -0.1491727103
 C          0.5568474800        0.5825757451        0.3961986599
 C         -0.4067563069       -0.2053032216       -0.4759301233
 S         -2.1151543592       -0.0109896784        0.1813983989
 H          3.6755585830       -0.7407313353       -0.4111345818
 H          2.1294257200       -1.5023390200       -0.7668790261
 H          2.6027890918       -1.2080450167        0.9083206115
 H          1.9810115924        0.9384424044       -1.1777299599
 H          2.5816425364        1.2647244392        0.4474941917
 H          0.2053357991        1.6160900646        0.4569947356
 H          0.5444657293        0.1699479332        1.4081039675
 H         -0.4044179013        0.1721008162       -1.4980456558
 H         -0.1779042522       -1.2689977230       -0.4653140156
 H         -2.7042589699       -0.7786312938       -0.7264335959
  15
        -16.90572747
 C          2.3327629141       -0.4980802120        0.5607497005
 C          1.4808428807       -0.1711232717       -0.6604211351
 C          0.5693593984        1.0396308679       -0.4540662981
 C         -0.5468631110        0.8030962161        0.5503241477
 S         -1.6909938290       -0.5100142083       -0.0543825766
 H          1.7154685731       -0.8098775377        1.3992318054
 H          2.9150280235        0.3701304416        0.8618072792
 H          3.0184748559       -1.3095459272        0.3303254293
 H          0.8695471522       -1.0381312946       -0.9231425983
 H          2.1383830086        0.0358195067       -1.5073012240
 H          0.1217529421        1.3134109346       -1.4128283302
 H          1.1648457145        1.8870451756       -0.1057088726
 H         -0.1570208267        0.4776997721        1.5128499867
 H         -1.1412646910        1.7067260360        0.6767606526
 H         -2.5624493288       -0.3924557794        0.9387105755
  15
        -16.90482089
 C          2.0161526401       -0.9158658134       -0.1769135261
 C          1.6114220239        0.3928146901        0.4954264986
 C          0.5839055165        1.1880099566       -0.3219647627
 C         -0.8563916188        1.0018133779        0.1346648387
 S         -1.5134887430       -0.6957485539       -0.0845121024
 H          2.5324196070       -0.7131087139       -1.1127995972
 H          1.1478482045       -1.5311581944       -0.3971150350
 H          2.6861634013       -1.4814020239        0.4664215544
 H          2.5074121613        1.0008403802        0.6328570440
 H          1.2063218617        0.1875728664        1.4888921230
 H          0.6647469377        0.9132687670       -1.3752726605
 H          0.7973185985        2.2563571424       -0.2409844757
 H         -0.9790083363        1.2597085968        1.1854608399
 H         -1.5246408202        1.6218550485       -0.4632480044
 H         -0.8708275526       -1.2421052540        0.9407524751
  15
        -16.90476153
 C          1.9586964535       -0.9520197406       -0.1049788945
 C          1.8730100455        0.5690980608       -0.1555775537
 C          0.5439035135        1.1302412238        0.3529682274
 C         -0.6584977399        0.7469828668       -0.5086167462
 S         -1.6808417123       -0.6031883956        0.1939901547
 H          1.7468540261       -1.3125188391        0.8993187682
 H          2.9580923812       -1.2794625516       -0.3813355808
 H          1.2557188854       -1.4067287170       -0.7989567942
 H          2.0340680955        0.9075764945       -1.1816891543
 H          2.6722081047        0.9888717449        0.4587465405
 H          0.6200155284        2.2195314276        0.3713874245
 H          0.3734272313        0.7983744701        1.3793585167
 H         -1.3654656428        1.5724541563       -0.5854167605
 H         -0.3609640154        0.4486111330       -1.5126207362
 H         -0.7562540625       -1.5542510131        0.1395044793
  15
        -16.90446301
 C          1.8085070268       -0.9864641156       -0.0243149667
 C          1.8036905059        0.5239128228       -0.2275277379
 C          0.5488845265        1.2138826334        0.3100610229
 C         -0.7302254361        0.8662206940       -0.4407107136
 S         -1.4902010321       -0.6882537635        0.1956894987
 H          1.6540199048       -1.2304596492        1.0249896273
 H          2.7615910486       -1.4052023492       -0.3386208701
 H          1.0214088710       -1.4641653825       -0.6017725968
 H          1.9058988404        0.7472342746       -1.2921476989
 H          2.6687603186        0.9513139720        0.2844501090
 H          0.6937982339        2.2943409406        0.2349292216
 H          0.4211834457        0.9698898599        1.3677713569
 H         -1.4771692406        1.6452154876       -0.2960607719
 H         -0.5374989237        0.7287833482       -1.5040579399
 H         -2.5879319522       -0.6170342820       -0.5469663792
  15
        -16.90435257
 C          2.7205031297       -0.0811628082       -0.5698470273
 C          1.7348681571       -0.5645446624        0.4879151649
 C          0.5797411457        0.4138481656        0.7052620378
 C         -0.3891971904        0.4622573730       -0.4782707312
 S         -2.0724450991       -0.1344581907       -0.0612451997
 H          3.5245871341       -0.8021777243       -0.6941183711
 H          3.1554872908        0.8709344816       -0.2744367009
 H          2.2304667466        0.0516615193       -1.5313880399
 H          2.2650732346       -0.6929363998        1.4336982242
 H          1.3313559828       -1.5382914849        0.2008634912
 H          0.9854681538        1.4114374785        0.8827524389
 H          0.0361576994        0.1144793430        1.6033519480
 H         -0.5015295864        1.4649594870       -0.8852092749
 H         -0.0735986127       -0.2055947914       -1.2787375630
 H         -2.3857332476        0.8574861504        0.7630221190
