  38
        -55.80911157
 C         -2.2780430793       -2.6204358487        0.8854191120
 C         -1.3716780526       -1.5829490852        1.5514529989
 C         -0.0419757582       -1.5208913672        0.8515171452
 C          0.8843160476       -2.5286751924        1.0877306003
 C          2.1073000481       -2.5349813800        0.4459367547
 C          2.4158919464       -1.5310759877       -0.4510612279
 C          1.5153883274       -0.5081467195       -0.7186373292
 C          0.2873017060       -0.5072306600       -0.0514562993
 N         -0.6387197087        0.5518125905       -0.3053183673
 C         -1.4392745739        0.4692617184       -1.5202838929
 O         -2.6030558506       -0.2814845122       -1.3773205865
 C         -3.6869333110        0.4033932678       -0.7817848749
 C         -0.7693851145        1.6333675560        0.4977414216
 O         -1.5461242348        2.5371222210        0.2665277932
 C          0.1209453112        1.6654419124        1.7342717347
 Cl         1.8078814446        1.9913892372        1.2699845938
 C          1.9000500705        0.5564766814       -1.7099969176
 C          1.9810237793        0.0000123052       -3.1328701990
 H         -1.8043787354       -3.5993609413        0.8888615316
 H         -2.4760827522       -2.3324881355       -0.1436208401
 H         -3.2238589676       -2.6891904401        1.4179172961
 H         -1.2141071094       -1.8606675696        2.5972509763
 H         -1.8679384805       -0.6120962154        1.5306929967
 H          0.6389999814       -3.3108642188        1.7911875061
 H          2.8211866848       -3.3192925983        0.6482694848
 H          3.3757564690       -1.5274132132       -0.9456292036
 H         -0.8479562696       -0.0449667951       -2.2816362876
 H         -1.6699396552        1.4981426307       -1.8323242662
 H         -3.4702511513        0.6944898015        0.2492306019
 H         -4.5264509084       -0.2885571883       -0.7970051813
 H         -3.9364974431        1.3038014384       -1.3515869785
 H          0.1127979659        0.7206139120        2.2753580821
 H         -0.2043934518        2.4860103250        2.3734631614
 H          1.1896961667        1.3832208332       -1.6812334085
 H          2.8800002822        0.9518218955       -1.4319664281
 H          2.2569607824        0.7899127078       -3.8272311643
 H          1.0246056168       -0.4137446246       -3.4458493781
 H          2.7256826844       -0.7895676969       -3.1951356038
