  11
        -14.54761821
 C         -1.1721145132       -1.2629334939       -0.1322483743
 C         -0.5264626927        0.0000143681        0.4077388583
 C         -1.1717940235        1.2630943542       -0.1322589076
 Cl         1.2156272106       -0.0000743684       -0.0459745155
 H         -0.6679179973       -2.1468706899        0.2501039023
 H         -2.2159981558       -1.2970222851        0.1732127851
 H         -1.1242487336       -1.2784712911       -1.2186821336
 H         -0.5386099902        0.0000127295        1.5008734996
 H         -1.1239475541        1.2786368629       -1.2186262839
 H         -0.6675498182        2.1469788980        0.2502772069
 H         -2.2157536072        1.2972635232        0.1731297758
  11
        -14.54338594
 C         -1.1661916819       -1.2614599636       -0.1319375063
 C         -0.5256679897        0.0072113789        0.4028995324
 C         -1.1887595498        1.2777504009       -0.1312206701
 Cl         1.2199178000       -0.0098142213       -0.0446185548
 H         -1.1190685567       -1.2809670139       -1.2184037738
 H         -0.6573881634       -2.1418072737        0.2533195486
 H         -2.2090998571       -1.2985598647        0.1772514255
 H         -0.5281860490       -0.0041642389        1.4952086444
 H         -2.0181967339        1.0250923979       -0.7872029727
 H         -0.4833863784        1.8771585375       -0.7001390022
 H         -1.5674982457        1.8883960574        0.6841512638
