  11
  -14.5476182100000       0.110973644114922      !mtd12
 C         -1.1721145132       -1.2629334939       -0.1322483743
 C         -0.5264626927        0.0000143681        0.4077388583
 C         -1.1717940235        1.2630943542       -0.1322589076
 Cl         1.2156272106       -0.0000743684       -0.0459745155
 H         -0.6679179973       -2.1468706899        0.2501039023
 H         -2.2159981558       -1.2970222851        0.1732127851
 H         -1.1242487336       -1.2784712911       -1.2186821336
 H         -0.5386099902        0.0000127295        1.5008734996
 H         -1.1239475541        1.2786368629       -1.2186262839
 H         -0.6675498182        2.1469788980        0.2502772069
 H         -2.2157536072        1.2972635232        0.1731297758
  11
  -14.5476182000000       0.110972469803869      !md2
 C         -1.1720596270       -1.2628689498       -0.1322675189
 C         -0.5264165535        0.0000584575        0.4077908871
 C         -1.1718530294        1.2631104228       -0.1322720032
 Cl         1.2156249178       -0.0001220828       -0.0459745661
 H         -2.2159404995       -1.2967771161        0.1731029481
 H         -1.1242005680       -1.2784394148       -1.2186031945
 H         -0.6680507955       -2.1468831430        0.2501197892
 H         -0.5385876208        0.0000477949        1.5009270753
 H         -1.1239758039        1.2786254759       -1.2185921364
 H         -0.6678737097        2.1470600365        0.2500967977
 H         -2.2158169501        1.2970864161        0.1730034361
  11
  -14.5476182000000       0.110972469803869      !mtd4
 C         -1.1722370240       -1.2628581362       -0.1322530384
 C         -0.5263675575       -0.0000355544        0.4076651291
 C         -1.1718515222        1.2629817394       -0.1322757536
 Cl         1.2156910441       -0.0000447590       -0.0459526963
 H         -2.2162820405       -1.2964668649        0.1730006705
 H         -1.1241631819       -1.2785840164       -1.2186200722
 H         -0.6684913387       -2.1468863195        0.2505892082
 H         -0.5386752777       -0.0000824769        1.5008019702
 H         -0.6679410903        2.1468617206        0.2506020403
 H         -2.2158953101        1.2969424266        0.1729668257
 H         -1.1238115322        1.2787406691       -1.2186844319
  11
  -14.5476182000000       0.110972469803869      !mtd2
 C         -1.1721789540       -1.2628654962       -0.1322578389
 C         -0.5265042315        0.0000450974        0.4077436375
 C         -1.1719174511        1.2630611775       -0.1322618345
 Cl         1.2157350178       -0.0001017643       -0.0459763251
 H         -1.1239342095       -1.2785834639       -1.2186469146
 H         -0.6684355163       -2.1469129243        0.2506534025
 H         -2.2162841042       -1.2965513809        0.1728000092
 H         -0.5385825025        0.0000504975        1.5008703046
 H         -1.1242778164        1.2784857981       -1.2186181391
 H         -0.6676915963        2.1469446214        0.2501434780
 H         -2.2158784289        1.2972770964        0.1732409793
  11
  -14.5476181800000       0.110970121218835      !mtd9
 C         -1.1722255219       -1.2628837649       -0.1322834461
 C         -0.5263232717       -0.0000427167        0.4077934674
 C         -1.1717848163        1.2629646792       -0.1323042897
 Cl         1.2156303417       -0.0000223235       -0.0459657203
 H         -0.6690163185       -2.1469267194        0.2512308659
 H         -2.2165566357       -1.2960629223        0.1720191249
 H         -1.1232035324       -1.2791266746       -1.2185950891
 H         -0.5385910744       -0.0000004586        1.5009463639
 H         -2.2159461050        1.2966379164        0.1724495657
 H         -1.1232508279        1.2789586332       -1.2186401516
 H         -0.6680198062        2.1468502618        0.2508766901
  11
  -14.5476181800000       0.110970121218835      !mtd6
 C         -1.1721678060       -1.2627918025       -0.1322749279
 C         -0.5263950129        0.0001106022        0.4077137610
 C         -1.1720122095        1.2630522981       -0.1322644320
 Cl         1.2157312714       -0.0001491581       -0.0459536576
 H         -0.6681687767       -2.1468431035        0.2502712288
 H         -2.2161614590       -1.2966306804        0.1731710002
 H         -1.1243646017       -1.2784239564       -1.2186822452
 H         -0.5386106056        0.0001383609        1.5008270786
 H         -0.6679308229        2.1470296369        0.2502854633
 H         -2.2161839711        1.2970403825        0.1729271524
 H         -1.1238373265        1.2785136932       -1.2185632548
  11
  -14.5476181800000       0.110970121218835      !mtd4
 C         -1.1720805784       -1.2630489130       -0.1322328587
 C         -0.5264336799        0.0000044621        0.4076307481
 C         -1.1717222332        1.2631809703       -0.1322436796
 Cl         1.2155827136       -0.0000591276       -0.0459691033
 H         -1.1247461398       -1.2784952551       -1.2185638050
 H         -0.6677403893       -2.1470290852        0.2498811194
 H         -2.2158462578       -1.2972253696        0.1736172794
 H         -0.5385960647       -0.0000656556        1.5007727054
 H         -2.2156933866        1.2969761465        0.1730758310
 H         -1.1235998034        1.2791916278       -1.2185783171
 H         -0.6678442799        2.1471005288        0.2508155317
  11
  -14.5476181800000       0.110970121218835      !mtd5
 C         -1.1721795613       -1.2628551258       -0.1322725785
 C         -0.5262811727       -0.0000323262        0.4077218799
 C         -1.1717425892        1.2629390277       -0.1322905957
 Cl         1.2155873628       -0.0000230975       -0.0459559580
 H         -2.2164131550       -1.2963482234        0.1724784552
 H         -1.1236616472       -1.2788542601       -1.2185509456
 H         -0.6687680468       -2.1469180414        0.2508993508
 H         -0.5385047190       -0.0000977480        1.5008792739
 H         -2.2155376291        1.2974597621        0.1737741164
 H         -1.1245812493        1.2781132065       -1.2186873185
 H         -0.6671586724        2.1468431428        0.2497114470
  11
  -14.5476181700000       0.110968946944852      !md3
 C         -1.1721255487       -1.2628041924       -0.1322787227
 C         -0.5264195559        0.0000579494        0.4078011529
 C         -1.1718583960        1.2629826050       -0.1322765206
 Cl         1.2156411212       -0.0001045089       -0.0459757280
 H         -1.1238815250       -1.2783495358       -1.2186305705
 H         -0.6681163709       -2.1468470167        0.2504865934
 H         -2.2162323268       -1.2966359208        0.1729528443
 H         -0.5385593564        0.0001132203        1.5009420176
 H         -0.6674171972        2.1470043395        0.2496080484
 H         -2.2155432018        1.2972387882        0.1735445681
 H         -1.1243806143        1.2783355476       -1.2187429064
  11
  -14.5433859400000       1.259514653279080E-003 !mtd7
 C         -1.1661916819       -1.2614599636       -0.1319375063
 C         -0.5256679897        0.0072113789        0.4028995324
 C         -1.1887595498        1.2777504009       -0.1312206701
 Cl         1.2199178000       -0.0098142213       -0.0446185548
 H         -1.1190685567       -1.2809670139       -1.2184037738
 H         -0.6573881634       -2.1418072737        0.2533195486
 H         -2.2090998571       -1.2985598647        0.1772514255
 H         -0.5281860490       -0.0041642389        1.4952086444
 H         -2.0181967339        1.0250923979       -0.7872029727
 H         -0.4833863784        1.8771585375       -0.7001390022
 H         -1.5674982457        1.8883960574        0.6841512638
