  18
        -20.89172396
 C         -2.5292426398        0.0740209037        0.2896414442
 C         -1.2654885592        0.7141034185       -0.2721426157
 C         -0.0000943128       -0.0087037550        0.2113095145
 C          1.2652128529        0.7150351202       -0.2710789913
 C          2.5291173881        0.0739152403        0.2891754243
 O          0.0004699666       -1.3616775727       -0.1897598630
 H         -3.4161087230        0.5386097840       -0.1347035485
 H         -2.5441890766       -0.9882578129        0.0579367699
 H         -2.5615346427        0.1866942649        1.3707331175
 H         -1.2924756655        0.6815076980       -1.3656212729
 H         -1.2133874861        1.7613701584        0.0297852881
 H         -0.0004825387       -0.0488131915        1.3060447044
 H          1.2919644376        0.6847147864       -1.3646331752
 H          1.2130894076        1.7616646883        0.0330468830
 H          3.4158504951        0.5397960919       -0.1340665602
 H          2.5613857350        0.1840341057        1.3705299061
 H          2.5443495386       -0.9878053857        0.0549457765
 H         -0.0000196580       -1.3883034174       -1.1540795545
  18
        -20.89118078
 C         -2.1535303912        1.0302790983        0.5341986208
 C         -1.4721124379        0.0132707034       -0.3720816891
 C         -0.0679028185       -0.3899214045        0.1048756524
 C          0.9624753078        0.7224972508       -0.1248261573
 C          2.3239128634        0.3562892853        0.4541380074
 O          0.3381262313       -1.5921604756       -0.5183482248
 H         -1.6141000533        1.9739643520        0.5440487352
 H         -3.1652084296        1.2228333127        0.1847363349
 H         -2.2081923864        0.6543401779        1.5531768824
 H         -2.0783208713       -0.8950464762       -0.4085545234
 H         -1.4051488474        0.4117525960       -1.3887597293
 H         -0.1060395019       -0.6370759872        1.1715046766
 H          1.0561830257        0.8961701780       -1.2014384889
 H          0.6047662838        1.6443778401        0.3339406248
 H          2.6530699889       -0.6019992501        0.0594824072
 H          3.0638029680        1.1124368720        0.2022845297
 H          2.2647103965        0.2756898893        1.5370034965
 H          0.4191005282       -1.4284361136       -1.4652421603
  18
        -20.89032096
 C         -2.4252282801        0.2683364688       -0.1389333330
 C         -0.9715863221        0.7098522442       -0.2619039481
 C         -0.0383656450       -0.2114619411        0.5355457081
 C          1.3885367628        0.3539889967        0.6551590145
 C          2.0912340376        0.5758832575       -0.6809755662
 O         -0.0385078741       -1.5212402869        0.0107263831
 H         -2.5218756818       -0.7759360440       -0.4265777688
 H         -2.7684268311        0.3721031724        0.8878203348
 H         -3.0649813298        0.8695269766       -0.7808685469
 H         -0.6801142079        0.6913895075       -1.3151302216
 H         -0.8600943073        1.7319809655        0.1037565999
 H         -0.4412642017       -0.3278836008        1.5487412808
 H          1.3393368797        1.2973215128        1.2017451457
 H          1.9741866234       -0.3494835523        1.2508710584
 H          1.5708431959        1.3177013607       -1.2818648914
 H          3.1039894931        0.9324183822       -0.5078206572
 H          2.1585610106       -0.3517024207       -1.2468437052
 H          0.2697339361       -1.4774025815       -0.9017480734
  18
        -20.88976608
 C         -1.7747662341        0.9504416008       -0.3631821855
 C         -1.0453517860        0.2331675776        0.7689562286
 C          0.1334205611       -0.6451535162        0.3152992749
 C          1.2033669935        0.1078326680       -0.4881683433
 C          1.8720659468        1.2301309239        0.2947557620
 O         -0.3161770519       -1.7757988504       -0.4039575565
 H         -2.1426941876        0.2433886189       -1.1049393016
 H         -2.6321630489        1.4874405969        0.0361832475
 H         -1.1279200846        1.6709720750       -0.8576438918
 H         -0.6794130955        0.9650124684        1.4896567995
 H         -1.7511776616       -0.4193031262        1.2879843520
 H          0.6029193269       -1.0675784642        1.2119591064
 H          1.9577632780       -0.6245583251       -0.7853516561
 H          0.7589116466        0.5075390505       -1.4029416531
 H          2.6912997432        1.6517094305       -0.2833211892
 H          1.1686974261        2.0284812932        0.5168812200
 H          2.2729875219        0.8528283962        1.2327802026
 H         -0.7327228618       -1.4679287730       -1.2168842830
  18
        -20.88914848
 C         -2.5425992584        0.1158101868        0.3013843785
 C         -1.2629400602        0.7004023514       -0.2894893874
 C          0.0041376213       -0.0127992909        0.2057787165
 C          1.2658679418        0.6830631769       -0.3109270255
 C          2.5283016550        0.0947877956        0.3062225966
 O          0.0559446238       -1.3545736818       -0.2367936214
 H         -3.4018823366        0.7047874578       -0.0101375581
 H         -2.7032577292       -0.9073719047       -0.0346373808
 H         -2.4999286675        0.1224151078        1.3893393356
 H         -1.2965521206        0.6315871692       -1.3785918085
 H         -1.1913346743        1.7547629294       -0.0176756887
 H          0.0118863349        0.0091196463        1.3099173114
 H          1.2990973473        0.5599415584       -1.3943444007
 H          1.2009133126        1.7487763767       -0.0847781916
 H          2.5716065550       -0.9716488278        0.1043146641
 H          3.4125417338        0.5683796783       -0.1131579694
 H          2.5324789262        0.2449551019        1.3838923466
 H         -0.7374494774       -1.8069071706        0.0667958002
  18
        -20.88906387
 C         -2.1510454277        1.0247395038        0.5257886465
 C         -1.4627244356        0.0097177234       -0.3759721486
 C         -0.0647632060       -0.3888335001        0.1076979207
 C          0.9766748840        0.7029148657       -0.1695704275
 C          2.3301799209        0.4096018817        0.4711083369
 O          0.2576833638       -1.5962273671       -0.5568577430
 H         -1.6073005985        1.9660741938        0.5492424999
 H         -3.1557431408        1.2239426704        0.1613484017
 H         -2.2243670841        0.6451968634        1.5426579332
 H         -2.0573523680       -0.9042800108       -0.4181999936
 H         -1.3844864776        0.3992230970       -1.3922501935
 H         -0.1050877889       -0.5733815562        1.1959649897
 H          1.0942809636        0.8000929058       -1.2510136801
 H          0.5990177575        1.6493780292        0.2179964365
 H          2.7878558500       -0.4827401708        0.0464794720
 H          3.0112489372        1.2409756893        0.3053430208
 H          2.2215502439        0.2652723723        1.5446865862
 H          1.1591558283       -1.8427564666       -0.3248447556
  18
        -20.88889734
 C         -1.8195080533        0.9618999440        0.8257620086
 C         -1.1562289419        0.3333908134       -0.3942684962
 C          0.0085474618       -0.6117852717       -0.0385986843
 C          1.3885683220        0.0333940340       -0.2271642316
 C          1.6553513465        1.2078347972        0.7042517361
 O         -0.0639403505       -1.8103929701       -0.7891184135
 H         -2.6362336601        1.6103208820        0.5155389056
 H         -2.2243311802        0.1886850684        1.4744645214
 H         -1.1113658519        1.5533577147        1.3992755422
 H         -1.9064255030       -0.2543337865       -0.9294793251
 H         -0.8047285766        1.1174101020       -1.0695667042
 H         -0.0970957288       -0.9424555230        1.0001421464
 H          2.1394317256       -0.7416010592       -0.0547027781
 H          1.4847086445        0.3622713599       -1.2670105259
 H          0.9890762005        2.0384384965        0.4870859863
 H          1.5166095752        0.9108271831        1.7411653308
 H          2.6789498568        1.5547381598        0.5813144275
 H          0.0720112967       -1.5962721453       -1.7192203364
  18
        -20.88878565
 C         -2.3143418446        0.3754459821        0.4609119938
 C         -0.9667587804        0.6986456590       -0.1719071383
 C          0.0689670477       -0.3897643712        0.1147520176
 C          1.4767006763        0.0024251850       -0.3590401559
 C          2.1345389736        1.0639946704        0.5131205960
 O         -0.3738733783       -1.5605740367       -0.5481281408
 H         -3.0480954424        1.1343620299        0.2002405278
 H         -2.6651247239       -0.5889471149        0.1046638180
 H         -2.2275921972        0.3351047010        1.5448725520
 H         -1.0815540211        0.7746152081       -1.2542167917
 H         -0.6004893505        1.6526607760        0.2076551385
 H          0.1021797328       -0.5768075654        1.2024413618
 H          2.1026696941       -0.8958654032       -0.3500591971
 H          1.4161490734        0.3505680626       -1.3920732204
 H          3.1510997302        1.2487252740        0.1739040099
 H          1.5879912843        2.0021436229        0.4706792337
 H          2.1728276212        0.7356562846        1.5498118353
 H          0.2687129708       -2.2630735794       -0.4046030582
  18
        -20.88862557
 C         -2.0685681279        0.5210735181       -0.7100779364
 C         -1.3818430677        0.4036801496        0.6460985739
 C          0.0392991562       -0.1751942733        0.5516179180
 C          0.9703598472        0.6801015748       -0.3101551703
 C          2.4260853599        0.2619700029       -0.1453762666
 O          0.0285487517       -1.4770193307       -0.0023484268
 H         -3.1232020024        0.7531019880       -0.5806154528
 H         -1.6156464615        1.3082928637       -1.3062808343
 H         -1.9820541662       -0.4169725554       -1.2537200446
 H         -1.3308670411        1.3815887816        1.1279622882
 H         -1.9747014302       -0.2515282654        1.2926962081
 H          0.4534203654       -0.2197360203        1.5753022818
 H          0.6786345311        0.5567424264       -1.3528078463
 H          0.8481116506        1.7281395324       -0.0313941592
 H          3.0656925146        0.8435511731       -0.8049177066
 H          2.7558782278        0.4151341435        0.8802981097
 H          2.5346221541       -0.7907663535       -0.3910659862
 H         -0.5882885571       -2.0202737040        0.4992061228
  18
        -20.88844839
 C         -1.9016037627        1.2205870070        0.2277635193
 C         -1.1991434175        0.0765547001       -0.4894470942
 C         -0.1305630150       -0.6124772327        0.3625492734
 C          1.0407070451        0.2971157858        0.7640350177
 C          1.7780311613        0.8916612776       -0.4308689315
 O          0.3206049389       -1.7245954477       -0.3887344905
 H         -2.3117356448        0.8829586779        1.1773783975
 H         -1.2183093993        2.0436353462        0.4209568258
 H         -2.7185700983        1.5957602786       -0.3838215061
 H         -1.9277582843       -0.6886154455       -0.7631998751
 H         -0.7389591232        0.4299719508       -1.4117305597
 H         -0.6081538808       -0.9739207654        1.2919940316
 H          0.6685270769        1.0910333100        1.4122514651
 H          1.7415238959       -0.3026010312        1.3544261520
 H          2.0013973813        0.1127264070       -1.1565779160
 H          1.1783475605        1.6555711945       -0.9180445775
 H          2.7122718393        1.3464005792       -0.1091933327
 H          1.0486986629       -2.1422348228        0.0840357855
  18
        -20.88830322
 C         -2.0620115311        0.5533190797       -0.6971132611
 C         -1.3852017835        0.3540876536        0.6535505405
 C          0.0365845611       -0.2088760473        0.5414211084
 C          0.9651477535        0.6908493221       -0.2861734271
 C          2.4357527033        0.3149180137       -0.1305974053
 O         -0.0672683197       -1.5069701770       -0.0102572576
 H         -3.1093899055        0.8083929910       -0.5546090761
 H         -1.5891882313        1.3544077081       -1.2595267832
 H         -2.0029028596       -0.3659005161       -1.2731131510
 H         -1.3462010977        1.2978501870        1.2007585410
 H         -1.9690197285       -0.3570963427        1.2403114370
 H          0.4500586631       -0.2834263792        1.5640045002
 H          0.6808328064        0.6166530609       -1.3367590197
 H          0.8229008697        1.7234800821        0.0363720533
 H          2.7344518983        0.3606908662        0.9151831515
 H          2.6306260601       -0.6907993098       -0.5005050652
 H          3.0610125414        1.0025537849       -0.6951795166
 H          0.8205667015       -1.8550439424       -0.1404222007
  18
        -20.88799446
 C         -1.7573656917        0.9148400665       -0.3962053110
 C         -1.0419190223        0.2417706894        0.7687306216
 C          0.1395042751       -0.6342932209        0.3371932816
 C          1.2046203252        0.1012633404       -0.4868503575
 C          1.8613056858        1.2494094002        0.2682314179
 O         -0.3995804181       -1.7200269281       -0.3956993727
 H         -1.1376466214        1.6834010360       -0.8512646204
 H         -2.0089146586        0.1722080422       -1.1483311252
 H         -2.6757207961        1.3816480563       -0.0479417301
 H         -0.6903892864        0.9874296150        1.4826731797
 H         -1.7465172794       -0.4134229794        1.2838780193
 H          0.6217340580       -1.0223486111        1.2534374285
 H          1.9751560875       -0.6254176783       -0.7660073238
 H          0.7515135286        0.4676269473       -1.4089729130
 H          2.6785746674        1.6633964427       -0.3180281088
 H          1.1488564542        2.0451259048        0.4669385180
 H          2.2622733077        0.9007126518        1.2178615947
 H          0.3240396348       -2.2568167826       -0.7352771326
  18
        -20.88739633
 C         -1.6559385545        1.2394826011        0.6584049804
 C         -1.4015603312        0.0223984358       -0.2204546899
 C         -0.0179496973       -0.6068939057       -0.0090879381
 C          1.1410095849        0.3207281306       -0.4032992799
 C          1.8400834705        0.9610928974        0.7891558732
 O          0.1141828367       -1.7762484351       -0.8007168914
 H         -2.6764394386        1.5906102361        0.5228570647
 H         -1.5164927109        0.9876928919        1.7077270636
 H         -0.9811962629        2.0517728696        0.4034309989
 H         -2.1611318566       -0.7361660121       -0.0033821205
 H         -1.4997712041        0.2956039489       -1.2736721766
 H          0.0857618885       -0.8809142420        1.0550161100
 H          1.8575576247       -0.2911966702       -0.9535713512
 H          0.7777682684        1.0930189231       -1.0829243288
 H          2.2550287498        0.1965902140        1.4420625075
 H          2.6542353493        1.5957274435        0.4465796259
 H          1.1518912853        1.5702812065        1.3695299587
 H         -0.6353282080       -2.3575267999       -0.6319661055
  18
        -20.88703877
 C         -2.0208390563        0.7681382642        0.7643092127
 C         -1.0829802589        0.4486655473       -0.3925374252
 C          0.0373856827       -0.5300343486       -0.0047826822
 C          1.4397883727        0.0314234572       -0.2791405131
 C          1.8069947715        1.1711183059        0.6620375192
 O         -0.1838847302       -1.7171677275       -0.7470110745
 H         -2.8078470798        1.4432319336        0.4359572901
 H         -2.4837527795       -0.1408514152        1.1406182843
 H         -1.4785245962        1.2434672899        1.5792774866
 H         -1.6464253051       -0.0206518393       -1.2001744927
 H         -0.6536407424        1.3730007141       -0.7805207879
 H         -0.0355392635       -0.7614324707        1.0714957409
 H          2.1685522683       -0.7766507270       -0.1588395972
 H          1.4879579361        0.3671515098       -1.3171438310
 H          1.1173308192        2.0040163077        0.5544113451
 H          1.7770128058        0.8342877714        1.6962640378
 H          2.8109835920        1.5286148566        0.4463383714
 H          0.5136784024       -2.3505226511       -0.5459188899
  18
        -20.88692326
 C         -1.6670809983        1.2114289474        0.6678019459
 C         -1.3877016977        0.0127976684       -0.2268997378
 C         -0.0033246335       -0.6069112301       -0.0177531042
 C          1.1517495628        0.3379445632       -0.4039284066
 C          1.8278821258        0.9843882548        0.7998798519
 O          0.0077290209       -1.7875214970       -0.8024446024
 H         -2.6925013273        1.5455070888        0.5285633263
 H         -1.5326463338        0.9476803760        1.7147763868
 H         -1.0064116328        2.0411498464        0.4302913990
 H         -2.1237083960       -0.7697993442       -0.0341699399
 H         -1.4788686791        0.2955304468       -1.2770542182
 H          0.1043551765       -0.8825722109        1.0453316355
 H          1.8985208315       -0.2385812451       -0.9576305405
 H          0.7811815217        1.1100827616       -1.0798418323
 H          1.1198691178        1.5729653034        1.3764346096
 H          2.2526798779        0.2257038449        1.4544987493
 H          2.6317475980        1.6396384249        0.4715361016
 H          0.8582747819       -2.2267071537       -0.6958376958
  18
        -20.88615820
 C         -1.6325847548        0.7307879195       -0.9316869760
 C         -1.4053063608        0.2899136944        0.5104250577
 C         -0.0267544615       -0.3339986431        0.8004241412
 C          1.1537058584        0.6186932428        0.4933912080
 C          1.7736063996        0.4391061375       -0.8904835981
 O          0.1140512233       -1.5918895551        0.1819863589
 H         -0.9635269178        1.5427508289       -1.2047927700
 H         -1.4895323663       -0.0961683591       -1.6253117438
 H         -2.6545251727        1.0856628270       -1.0474129878
 H         -1.5372571469        1.1463133875        1.1743654651
 H         -2.1587292658       -0.4558026788        0.7751189575
 H         -0.0052373720       -0.5635726995        1.8729350041
 H          0.8096388595        1.6467177975        0.6165874454
 H          1.9378494849        0.4433710430        1.2321813877
 H          2.1776173210       -0.5656524610       -0.9954604461
 H          1.0547825335        0.6144794862       -1.6869809137
 H          2.5920774381        1.1447729476       -1.0147761463
 H          0.0629755082       -1.4622093487       -0.7716326471
  18
        -20.88404568
 C         -1.7211888971        0.4111460344       -0.9478488623
 C         -1.2067567156        0.5891882115        0.4765579952
 C          0.0196636184       -0.2720540006        0.8301590619
 C          1.3759510418        0.3784027673        0.5034298249
 C          1.6222999932        0.6263491568       -0.9799097423
 O         -0.1184246330       -1.5316644900        0.2048413690
 H         -1.8977188312       -0.6423327712       -1.1421976099
 H         -2.6577698672        0.9520159752       -1.0657841238
 H         -1.0153894329        0.7829321105       -1.6827406687
 H         -0.9589282964        1.6354884811        0.6636793956
 H         -2.0128907096        0.3109788601        1.1584534268
 H          0.0075156533       -0.4158351129        1.9275297100
 H          1.4508040539        1.3160140638        1.0573061548
 H          2.1581609047       -0.2874359833        0.8843049345
 H          1.0390102058        1.4710493266       -1.3345758991
 H          2.6739425299        0.8462436423       -1.1523942177
 H          1.3523801938       -0.2545974874       -1.5576025064
 H          0.6686075026       -2.0531822258        0.3939325074
  18
        -20.88397835
 C         -1.6350652871        0.5826463757       -0.9799440920
 C         -1.3268629929        0.4407642046        0.5072043360
 C         -0.0059776937       -0.2815070824        0.8327462096
 C          1.2770660772        0.4965518469        0.5006818186
 C          1.6655664577        0.5052803334       -0.9733432487
 O          0.0677669592       -1.5436769741        0.2009115238
 H         -2.6964954591        0.7734266595       -1.1245258153
 H         -1.0838650666        1.4075815848       -1.4200340427
 H         -1.3717019005       -0.3311888735       -1.5071672481
 H         -1.3124173881        1.4211769190        0.9857923829
 H         -2.1314761666       -0.1368600261        0.9751953915
 H         -0.0036697044       -0.4300939704        1.9299092800
 H          1.1683313388        1.5162919101        0.8742324752
 H          2.0867119494        0.0203260560        1.0577305787
 H          2.6864305533        0.8660274245       -1.0790152213
 H          1.6100304375       -0.5040787678       -1.3696561821
 H          1.0172669101        1.1484724429       -1.5589163961
 H         -0.7436979540       -2.0266085466        0.3896794121
  18
        -20.88384450
 C         -1.6162000239        0.6543639469       -0.9716058607
 C         -1.3891109566        0.3298285644        0.4987977343
 C         -0.0238449926       -0.2913218406        0.8230352790
 C          1.1891757653        0.6037140710        0.4840341283
 C          1.7320073558        0.4463830832       -0.9337254079
 O          0.0365355367       -1.5517414369        0.1871926374
 H         -1.3635411418       -0.2081670338       -1.5815878726
 H         -2.6629746968        0.9007997724       -1.1362678993
 H         -1.0171918293        1.5058084101       -1.2836992794
 H         -1.5085603566        1.2303874496        1.1045708681
 H         -2.1426950102       -0.3933946350        0.8167442691
 H         -0.0122446582       -0.4457462934        1.9187869030
 H          0.9057718006        1.6426318131        0.6583059973
 H          1.9961810891        0.3647097482        1.1835629604
 H          0.9956092421        0.7306339334       -1.6770385436
 H          2.6100778976        1.0769591937       -1.0582342087
 H          2.0229540744       -0.5837144447       -1.1265157925
 H          0.8833456640       -1.9592694564        0.3951772891
  18
        -20.88382879
 C         -1.6198219343        0.6452062627       -0.9734601588
 C         -1.3994034301        0.3235261739        0.4985879510
 C         -0.0257677207       -0.2782328367        0.8242005825
 C          1.1653074014        0.6403149543        0.4652555591
 C          1.7583796859        0.4013271965       -0.9209399097
 O          0.0467373395       -1.5411096976        0.1947820600
 H         -1.3967835169       -0.2294386627       -1.5779086364
 H         -2.6584223977        0.9241175201       -1.1376041918
 H         -0.9929940674        1.4735793765       -1.2930631620
 H         -1.5317373042        1.2232829666        1.1029813556
 H         -2.1461892157       -0.4081816017        0.8128351757
 H         -0.0061230072       -0.4265214492        1.9202482321
 H          0.8332249135        1.6760152837        0.5488099879
 H          1.9571489506        0.4927844094        1.2054251667
 H          2.5415841801        1.1319343655       -1.1127246072
 H          2.1982805452       -0.5910826163       -0.9927277527
 H          1.0036504241        0.4900191331       -1.6948315675
 H          0.9020383892       -1.9346256723        0.3940194065
