  18
        -20.89172396
 C         -2.5292426398        0.0740209037        0.2896414442
 C         -1.2654885592        0.7141034185       -0.2721426157
 C         -0.0000943128       -0.0087037550        0.2113095145
 C          1.2652128529        0.7150351202       -0.2710789913
 C          2.5291173881        0.0739152403        0.2891754243
 O          0.0004699666       -1.3616775727       -0.1897598630
 H         -3.4161087230        0.5386097840       -0.1347035485
 H         -2.5441890766       -0.9882578129        0.0579367699
 H         -2.5615346427        0.1866942649        1.3707331175
 H         -1.2924756655        0.6815076980       -1.3656212729
 H         -1.2133874861        1.7613701584        0.0297852881
 H         -0.0004825387       -0.0488131915        1.3060447044
 H          1.2919644376        0.6847147864       -1.3646331752
 H          1.2130894076        1.7616646883        0.0330468830
 H          3.4158504951        0.5397960919       -0.1340665602
 H          2.5613857350        0.1840341057        1.3705299061
 H          2.5443495386       -0.9878053857        0.0549457765
 H         -0.0000196580       -1.3883034174       -1.1540795545
