  22
        -29.46108580
 C         -2.8939568497        0.9739563695        1.0541234240
 C         -2.9349030433       -0.3854925180        0.3678960674
 C         -2.0605678141       -0.4237049348       -0.8932541300
 C         -0.6058448884       -0.2511738189       -0.5612077133
 C          0.1244487930       -1.3081032847       -0.0285744262
 C          1.4523474748       -1.1579670264        0.3154803822
 C          2.0850289882        0.0681146455        0.1319537903
 C          1.3673750176        1.1306808949       -0.4012839319
 C          0.0363137765        0.9655594833       -0.7413530181
 O          3.3977732184        0.1739398578        0.4851080331
 H         -3.5229389482        0.9711219727        1.9409952383
 H         -1.8768735506        1.2176348575        1.3531691963
 H         -3.2509523844        1.7510388446        0.3818328190
 H         -3.9644705765       -0.6206277458        0.0903340685
 H         -2.5906981237       -1.1528392764        1.0642946575
 H         -2.3809154611        0.3673117397       -1.5735213085
 H         -2.2068611302       -1.3841159359       -1.3922551918
 H         -0.3536357209       -2.2658304151        0.1165846176
 H          2.0208832749       -1.9772913311        0.7272101613
 H          1.8471563889        2.0874739087       -0.5511686201
 H         -0.5088897885        1.8012573783       -1.1551719077
 H          3.7239010073        1.0690373937        0.3088537451
  22
        -29.46096858
 C         -4.2476208555       -0.0253893419       -0.2177076590
 C         -2.7534975726       -0.1227243807       -0.4992932936
 C         -1.9183726572        0.2444131067        0.7336871990
 C         -0.4509813859        0.1377915688        0.4340421967
 C          0.2266593938       -1.0627419827        0.6117233578
 C          1.5662912181       -1.1799872866        0.2997645838
 C          2.2621568446       -0.0858175782       -0.2049616400
 C          1.5952950067        1.1188007755       -0.3893153614
 C          0.2529287818        1.2215451719       -0.0724914819
 O          3.5840564558       -0.2435304907       -0.4985498182
 H         -4.5147468605        0.9869872394        0.0768270186
 H         -4.8201020622       -0.2884992765       -1.1037155566
 H         -4.5284439097       -0.7013237663        0.5867968893
 H         -2.4891831746        0.5469068678       -1.3206645030
 H         -2.5024003717       -1.1395160566       -0.8091408754
 H         -2.1791546532       -0.4283895572        1.5529386077
 H         -2.1623140572        1.2641771448        1.0378306686
 H         -0.3011932545       -1.9196389416        1.0038736345
 H          2.0949495672       -2.1099404500        0.4399981843
 H          2.1246334252        1.9765679619       -0.7792617293
 H         -0.2534609826        2.1643750842       -0.2197529947
 H          3.9555461177        0.5838590920       -0.8393048809
  22
        -29.45861558
 C         -4.3080659056        0.3418002978       -0.0176440682
 C         -2.8293797634        0.7110681130       -0.0638114631
 C         -1.9525634909       -0.4863216069        0.2968947503
 C         -0.4688309936       -0.2753210236        0.1402440515
 C          0.3653433312       -1.3896732279        0.0876765903
 C          1.7330233471       -1.2626837346       -0.0362121584
 C          2.3093035842        0.0017978620       -0.1146963255
 C          1.4907426656        1.1210172322       -0.0640447830
 C          0.1190903843        0.9786798119        0.0639200324
 O          3.6644988181        0.0869623199       -0.2398812891
 H         -4.5837871292       -0.0028688401        0.9765818659
 H         -4.9238838053        1.2027602138       -0.2656404422
 H         -4.5266199822       -0.4524327020       -0.7279552378
 H         -2.6477289195        1.5278346512        0.6370572969
 H         -2.5728442862        1.0589654080       -1.0668622914
 H         -2.2441730790       -1.3359818758       -0.3265973660
 H         -2.1528147364       -0.7711639706        1.3351050465
 H         -0.0674145480       -2.3779226056        0.1458700318
 H          2.3748024347       -2.1289701495       -0.0765382831
 H          1.9224330515        2.1100730026       -0.1239686570
 H         -0.4878640185        1.8690304952        0.1020654017
 H          3.9412616277        1.0142852353       -0.2848574288
  22
        -29.45631283
 C         -3.5607262841        1.3039434566       -0.0230496698
 C         -2.9295110291        0.0803097070        0.6342463155
 C         -2.0229530535       -0.7129773546       -0.3201894572
 C         -0.5500659367       -0.4277497486       -0.1835371293
 C          0.3669376957       -1.4573348295       -0.3577736886
 C          1.7286545241       -1.2382868497       -0.2593341547
 C          2.2078803954        0.0341536928        0.0234102399
 C          1.3021247389        1.0741146866        0.2011748984
 C         -0.0550470390        0.8409765857        0.0953433132
 O          3.5387363459        0.3094405382        0.1366031987
 H         -2.8039092577        1.9752707611       -0.4203902233
 H         -4.2062040341        0.9996269777       -0.8442414829
 H         -4.1618568936        1.8531386175        0.6981742600
 H         -3.7332231936       -0.5709333468        0.9834617964
 H         -2.3552510510        0.3849280795        1.5112268310
 H         -2.3239927993       -0.5024124780       -1.3507947843
 H         -2.1729876994       -1.7821496720       -0.1580169582
 H          0.0122311137       -2.4545806784       -0.5754409498
 H          2.4179773636       -2.0589066992       -0.3991093831
 H          1.6822032097        2.0597606224        0.4208238294
 H         -0.7310360619        1.6685200519        0.2379220599
 H          4.0625790510       -0.4919206784       -0.0113145916
