  14
        -17.97354622
 C          1.8492526521        0.5072271901       -0.3962833145
 O          1.0028083004       -0.0029740136        0.6030866176
 C          0.0587529126       -0.9490215850        0.1493562399
 C         -1.1314209467       -0.3091435234       -0.5916925438
 N         -1.8440093649        0.6825258561        0.1903225684
 H          2.3647657859       -0.3029268444       -0.9267013134
 H          2.5825500039        1.1287850890        0.1144982402
 H          1.3079279975        1.1185878989       -1.1265893086
 H          0.5431141882       -1.6977358988       -0.4946074408
 H         -0.3012008809       -1.4437694823        1.0570149819
 H         -0.7799346710        0.1792054649       -1.5047654449
 H         -1.8305888393       -1.0986610689       -0.8776684256
 H         -1.1832915080        1.3800808265        0.5211527899
 H         -2.2503239163        0.2474597717        1.0130851973
