  14
        -17.97354622
 C          1.8492526521        0.5072271901       -0.3962833145
 O          1.0028083004       -0.0029740136        0.6030866176
 C          0.0587529126       -0.9490215850        0.1493562399
 C         -1.1314209467       -0.3091435234       -0.5916925438
 N         -1.8440093649        0.6825258561        0.1903225684
 H          2.3647657859       -0.3029268444       -0.9267013134
 H          2.5825500039        1.1287850890        0.1144982402
 H          1.3079279975        1.1185878989       -1.1265893086
 H          0.5431141882       -1.6977358988       -0.4946074408
 H         -0.3012008809       -1.4437694823        1.0570149819
 H         -0.7799346710        0.1792054649       -1.5047654449
 H         -1.8305888393       -1.0986610689       -0.8776684256
 H         -1.1832915080        1.3800808265        0.5211527899
 H         -2.2503239163        0.2474597717        1.0130851973
  14
        -17.97348259
 C          2.2283121951        0.1924071251        0.1835856559
 O          0.8846549664        0.3782346791       -0.1683330139
 C          0.0962061370       -0.7762445339        0.0182430086
 C         -1.3376265754       -0.4609782676       -0.4310626575
 N         -1.9773509186        0.6027586397        0.3141936968
 H          2.7339133918        1.1379535435       -0.0017526412
 H          2.6929327579       -0.5962174387       -0.4219801713
 H          2.3304588782       -0.0752916941        1.2435285328
 H          0.5009047311       -1.6150586889       -0.5692237645
 H          0.1057700005       -1.0691412876        1.0820442209
 H         -1.3151997730       -0.1616371196       -1.4811591315
 H         -1.9429286544       -1.3665452103       -0.3359778504
 H         -1.4237048540        1.4482544231        0.2199989452
 H         -2.0067267411        0.3680215268        1.3020651279
  14
        -17.97260064
 C          2.0402942645        0.4860123469       -0.3370664676
 O          1.2939364997       -0.6026064732        0.1467801511
 C          0.0119559825       -0.2715887565        0.6240146647
 C         -0.9960247171        0.1176223972       -0.4766865466
 N         -2.3629852288        0.2333566930       -0.0075310439
 H          3.0441638547        0.1077694246       -0.5216697785
 H          2.0872787211        1.2941698065        0.4036145893
 H          1.6300511185        0.8837891536       -1.2714370835
 H         -0.3408076283       -1.1763929587        1.1302583408
 H          0.0794542561        0.5418088329        1.3663122681
 H         -0.7185610054        1.0792423770       -0.9162873140
 H         -0.9680850451       -0.6415249393       -1.2626648546
 H         -2.4237486601        0.9281351797        0.7300281962
 H         -2.6783727245       -0.6511069496        0.3776012066
  14
        -17.97223480
 C          2.3953317694        0.1813557433        0.0545563993
 O          1.1681783664       -0.4787720503       -0.1090221090
 C          0.0570092367        0.3610851260        0.0869004025
 C         -1.2248892704       -0.4600660382       -0.1151028633
 N         -2.4521340811        0.2895883646        0.0570587583
 H          2.5055684363        1.0037897994       -0.6642167291
 H          3.1730878575       -0.5590689980       -0.1198588428
 H          2.4982510772        0.5878316132        1.0691350414
 H          0.0757221825        0.7871110348        1.1054938540
 H          0.0834107388        1.2017318052       -0.6286787104
 H         -1.2159055155       -0.8798986567       -1.1232613653
 H         -1.2248151046       -1.2890791512        0.5958470733
 H         -2.4911529779        1.0597141608       -0.6027751907
 H         -2.4980939877        0.6818599579        0.9919345393
  14
        -17.97152343
 C          2.2139575686        0.3054175475       -0.0785712299
 O          0.9060765670        0.1468132635        0.4000900525
 C          0.0813783409       -0.5865431551       -0.4797341372
 C         -1.3250224510       -0.6337252076        0.1065214975
 N         -1.9316141775        0.6832726421        0.0051454279
 H          2.7059443213       -0.6652655443       -0.2221385263
 H          2.7550458137        0.8782391112        0.6720295819
 H          2.2260090873        0.8479394248       -1.0324734801
 H          0.0499551087       -0.0990425134       -1.4647975803
 H          0.4760826130       -1.6068600545       -0.6045479728
 H         -1.9325395702       -1.3356929299       -0.4718413786
 H         -1.2490982002       -1.0051583975        1.1412115176
 H         -1.3159826163        1.3594120483        0.4459636632
 H         -2.8180815808        0.7026805646        0.4979046281
  14
        -17.97104412
 C          2.1860390510        0.0869089452        0.3207320299
 O          0.8996455852        0.4388518701       -0.1121435715
 C          0.0779294743       -0.6489770449       -0.5058881236
 C         -1.2570913945       -0.5911098236        0.2583630675
 N         -1.9983356593        0.6371371648        0.0587341924
 H          2.7616648605       -0.3977437124       -0.4775213430
 H          2.1520278077       -0.5813421894        1.1897813151
 H          2.6781845918        1.0163010252        0.6025198316
 H         -0.1102856742       -0.5666865812       -1.5862166927
 H          0.5743765406       -1.6055646712       -0.3129688946
 H         -1.8822149835       -1.4321579497       -0.0538865940
 H         -1.0566793278       -0.6835163656        1.3291768759
 H         -2.2170162776        0.7528308424       -0.9264290497
 H         -1.4091385105        1.4195626062        0.3270900260
  14
        -17.97097734
 C          1.5078056975        0.8914483836        0.0528860555
 O          1.2638805353       -0.4894581111       -0.0915062506
 C          0.0383222609       -0.9164309380        0.4449498773
 C         -1.1923450885       -0.4862462841       -0.3670787437
 N         -1.5763606865        0.8864103174       -0.0700604040
 H          0.7339206492        1.4882593240       -0.4358688491
 H          2.4743203145        1.0790829586       -0.4108844436
 H          1.5516934197        1.1695632929        1.1135516991
 H          0.0980802371       -2.0080197213        0.4480150402
 H         -0.0685652690       -0.5633681900        1.4828983936
 H         -0.9408570677       -0.5419043996       -1.4293330118
 H         -2.0008768185       -1.2101975961       -0.1672417245
 H         -1.8484816689        0.9706994174        0.9044532596
 H         -2.3714979687        1.1594133304       -0.6376118248
  14
        -17.97085661
 C          2.0370841727        0.3040517843       -0.5147612635
 O          1.2961767468       -0.2112043184        0.5633423746
 C         -0.0069858265       -0.6286117000        0.2353275752
 C         -0.9883682909        0.5236416918       -0.0157480354
 N         -2.3133370294       -0.0229934172       -0.2567017160
 H          3.0543266625        0.4352923264       -0.1499010898
 H          1.6520086000        1.2714030820       -0.8553260861
 H          2.0404221638       -0.3936349399       -1.3609072704
 H          0.0029722130       -1.2874584186       -0.6444771279
 H         -0.3466513865       -1.2071851414        1.0994079544
 H         -0.9385800410        1.2152594379        0.8420981728
 H         -0.6949316118        1.0739361817       -0.9138570104
 H         -2.9750185338        0.7247047057       -0.4342185055
 H         -2.6359531335       -0.5325523204        0.5596867885
  14
        -17.97061745
 C          1.9078808747        0.4277219156        0.4432685377
 O          1.0200148603        0.0294572866       -0.5698828531
 C          0.0381699980       -0.8989775301       -0.1638694294
 C         -1.1306950102       -0.2576873490        0.5903221951
 N         -1.8842969628        0.5783251244       -0.3277713731
 H          2.6537403660        1.0600297502       -0.0350653219
 H          2.4034470884       -0.4395820978        0.8975352670
 H          1.4101032584        1.0001318423        1.2345886387
 H         -0.3447542399       -1.3354514521       -1.0890307757
 H          0.4921850381       -1.6884597168        0.4518426035
 H         -1.7920732695       -1.0488566104        0.9558823497
 H         -0.7427566939        0.2891124111        1.4670912413
 H         -1.2444377890        1.1962659780       -0.8170621853
 H         -2.5577305227        1.1489792601        0.1712024438
  14
        -17.97055059
 C          1.5972350973        0.8215190889       -0.1415999763
 O          1.2741964724       -0.4425232204        0.3790740056
 C          0.0553527812       -0.9832832614       -0.0782250742
 C         -1.2094220400       -0.2449034259        0.4197320036
 N         -1.7717253549        0.7460452589       -0.4780760507
 H          0.9533058104        1.6108551740        0.2636185510
 H          1.5319574039        0.8295757713       -1.2376057095
 H          2.6252570615        1.0213015025        0.1564718992
 H          0.0480377334       -1.0188881809       -1.1810107850
 H          0.0576782410       -2.0071531146        0.3019626119
 H         -1.9930185326       -0.9825973983        0.6088616482
 H         -0.9734820687        0.2466480235        1.3668598269
 H         -2.0290208749        0.3175295675       -1.3608759338
 H         -1.1069320557        1.4858127009       -0.6741817416
  14
        -17.97040570
 C          2.3829026199        0.2173275464        0.0981037213
 O          1.1739366319       -0.4215551380       -0.2162942771
 C          0.0427533204        0.3160157257        0.1830435320
 C         -1.2112060369       -0.4435968864       -0.2413260493
 N         -2.3936397563        0.3222567205        0.1173703052
 H          3.1804136423       -0.4335572397       -0.2543897367
 H          2.4855051769        0.3679334361        1.1806622598
 H          2.4594208777        1.1927812387       -0.3988156193
 H          0.0465470322        0.4556159057        1.2769950289
 H          0.0425405871        1.3119497204       -0.2838382999
 H         -1.1968350220       -0.5609484624       -1.3272082570
 H         -1.1748816323       -1.4490022845        0.2079401818
 H         -2.4571943517        0.4165045632        1.1261574889
 H         -3.2287999318       -0.1573814228       -0.1996773483
  14
        -17.97017331
 C          2.0507902658        0.2519764271       -0.5069947649
 O          1.2839573970       -0.1457913335        0.6018659094
 C         -0.0100221503       -0.6010718123        0.2913076294
 C         -0.9804752123        0.5045995019       -0.1450695365
 N         -2.3347717371       -0.0229079633       -0.1341564401
 H          1.6754853934        1.1769082661       -0.9587087093
 H          2.0757973952       -0.5327715064       -1.2736594105
 H          3.0593073819        0.4235661785       -0.1348585828
 H          0.0362453172       -1.3790540108       -0.4877424048
 H         -0.3916988126       -1.0490712842        1.2114018306
 H         -0.9291623373        1.3194906288        0.5819375471
 H         -0.6772179669        0.9011270890       -1.1292645005
 H         -2.4226723195       -0.7799580681       -0.8044728394
 H         -2.9968537179        0.6992833791       -0.3952034567
  14
        -17.96967862
 C          1.6984531174        0.8087303082        0.2030714577
 O          1.1772224258       -0.3886434627       -0.3125355188
 C          0.0565237559       -0.9127828187        0.3740562210
 C         -1.2992669421       -0.5131444381       -0.2432073353
 N         -1.7129817709        0.8650853490       -0.0698077211
 H          1.0074425404        1.6530268261        0.0971964242
 H          2.5996852875        1.0186712965       -0.3706759516
 H          1.9626297402        0.7038898701        1.2633170435
 H          0.1533598399       -2.0015145919        0.3104626116
 H          0.0875399225       -0.6219273761        1.4337862158
 H         -1.2658592518       -0.7188962602       -1.3150631561
 H         -2.0692119313       -1.1474405693        0.2072645926
 H         -1.1028042491        1.4895863144       -0.5846110303
 H         -1.6854743205        1.1269596934        0.9103416458
  14
        -17.96963712
 C          1.7895508340        0.7217640329       -0.1946790545
 O          1.0569377901       -0.2247561214        0.5387559281
 C          0.0923236942       -0.9533980701       -0.2027078250
 C         -1.3468232521       -0.5181891113        0.1358812515
 N         -1.6882477351        0.8450471749       -0.2176717427
 H          2.4832898007        1.1798840930        0.5085251275
 H          1.1525545017        1.5029310728       -0.6273549339
 H          2.3593939142        0.2472651083       -1.0039263343
 H          0.2746985798       -0.8452547454       -1.2794065534
 H          0.2129948607       -2.0094463322        0.0645848834
 H         -2.0388502171       -1.1878983835       -0.3829437583
 H         -1.4974437427       -0.6266398763        1.2119918524
 H         -1.5310814998        1.0067530883       -1.2076847067
 H         -1.1080770861        1.4921704954        0.3052959803
  14
        -17.96926102
 C          1.5978596485        0.8411924197       -0.0226533934
 O          1.2864283001       -0.5279524967        0.0041746824
 C          0.0045847628       -0.8398948215        0.4998739670
 C         -1.1570157094       -0.4436091625       -0.4274706457
 N         -1.7486180590        0.8191297371       -0.0103447540
 H          1.3784538304        1.3179075969        0.9404181645
 H          1.0569816324        1.3716096337       -0.8159534588
 H          2.6659106660        0.9094113844       -0.2247810695
 H          0.0224304965       -1.9243910713        0.6245122300
 H         -0.1568467330       -0.3679360930        1.4794562524
 H         -0.7845494873       -0.4431893627       -1.4652155018
 H         -1.9400514379       -1.2018616019       -0.3520719317
 H         -2.5741457411        1.0213415157       -0.5633923189
 H         -1.0966548162        1.5854112881       -0.1383438636
  14
        -17.96894846
 C          1.6454358324        0.7048817074        0.4052158504
 O          1.0844151122       -0.1990772574       -0.5148593456
 C          0.0716735711       -1.0170314427        0.0080965293
 C         -1.1654315462       -0.2762863672        0.5366530999
 N         -1.6114794454        0.7221985998       -0.4171195387
 H          2.5125094828        1.1398122217       -0.0886063522
 H          1.9676337553        0.1906619359        1.3198470677
 H          0.9420430704        1.5012871174        0.6652342267
 H         -0.2175581926       -1.6606763764       -0.8277674412
 H          0.4678022371       -1.6500546909        0.8200053126
 H         -1.9240385777       -1.0450607844        0.7695985398
 H         -0.9241084947        0.2423769046        1.4698058240
 H         -1.7104705369        0.3105668402       -1.3386700647
 H         -2.5074874558        1.1072149926       -0.1405003103
  14
        -17.96894439
 C          1.6630795129        0.6933181975        0.4073260972
 O          1.0824216221       -0.1898397600       -0.5203991393
 C          0.0711717552       -1.0099323541        0.0019466936
 C         -1.1629283273       -0.2723096209        0.5413781995
 N         -1.6289782159        0.7152048818       -0.4140305766
 H          0.9701210821        1.4902927295        0.6926820428
 H          2.5261388271        1.1310507501       -0.0911072714
 H          1.9947320928        0.1602052619        1.3077568223
 H         -0.2233149557       -1.6475002941       -0.8367469347
 H          0.4707397396       -1.6487697598        0.8075902681
 H         -1.9131383193       -1.0442269119        0.7909628327
 H         -0.9120653178        0.2553574376        1.4668211338
 H         -1.7466566538        0.2933592979       -1.3287685286
 H         -2.5195152854        1.1027263101       -0.1234010788
  14
        -17.96882596
 C          1.7912876012        0.7270855287       -0.2000484291
 O          1.0445995297       -0.2197631083        0.5229465059
 C          0.0884888509       -0.9328989137       -0.2410969794
 C         -1.3441459935       -0.5438112429        0.1389376759
 N         -1.6073123974        0.8369379394       -0.2384081781
 H          2.4241811447        0.2418646012       -0.9537077085
 H          2.4262087632        1.2330919905        0.5259353407
 H          1.1496892835        1.4608760103       -0.6994340367
 H          0.2395855753       -0.7555002529       -1.3099585377
 H          0.2315301793       -1.9999305407       -0.0334263572
 H         -2.0355148594       -1.1858936337       -0.4134852793
 H         -1.4774845271       -0.7331687809        1.2160917302
 H         -1.0158523323        1.4505982912        0.3133491550
 H         -2.5706601213        1.0788953784       -0.0321104342
  14
        -17.96833857
 C          1.6587089035        0.6469620800       -0.3829536660
 O          1.0159996898       -0.0939755946        0.6270854215
 C          0.0696158992       -1.0203564571        0.1581976919
 C         -1.1320932905       -0.3933082609       -0.5664385291
 N         -1.6117194498        0.7939999471        0.1309597758
 H          2.0966243627       -0.0158743515       -1.1393711662
 H          2.4513383937        1.2063310832        0.1103595351
 H          0.9695614354        1.3447205984       -0.8670509010
 H          0.5453873739       -1.7547918260       -0.5113606696
 H         -0.2731939010       -1.5384067925        1.0591016191
 H         -0.8418687242       -0.0936773634       -1.5810572625
 H         -1.8979175740       -1.1754104319       -0.6620515046
 H         -1.2620873885        0.7994810667        1.0829697759
 H         -2.6230967944        0.8219324659        0.1627242837
  14
        -17.96753110
 C          2.2399465909        0.2162392375        0.2557235358
 O          0.9595847429        0.3200599954       -0.3042460995
 C          0.0897616706       -0.7013847570        0.1152638500
 C         -1.3055722394       -0.4406868527       -0.4490304867
 N         -1.9865702353        0.5868648019        0.3161090589
 H          2.8215956254        1.0467285019       -0.1386900592
 H          2.7223445128       -0.7314090931       -0.0206035985
 H          2.2052597568        0.2829241930        1.3510203375
 H          0.4590160032       -1.6780666230       -0.2410369064
 H          0.0456588551       -0.7356335349        1.2157547538
 H         -1.1916063018       -0.0764539564       -1.4720150659
 H         -1.8516157523       -1.4007158929       -0.4766966414
 H         -2.1666008885        0.2677483216        1.2621642573
 H         -2.8737815269        0.8216491034       -0.1132079472
  14
        -17.96613918
 C          1.5528728270        0.8570171592        0.0003363481
 O          1.2772618882       -0.5200921926       -0.0292833534
 C          0.0132456281       -0.8906044699        0.4740463781
 C         -1.1757229057       -0.4564918313       -0.3955635437
 N         -1.7273939391        0.8516688655       -0.0414876773
 H          2.6009799740        0.9644612515       -0.2741149071
 H          1.3998465371        1.2732336031        1.0048112483
 H          0.9418583444        1.4170399130       -0.7170951378
 H          0.0516667913       -1.9812327855        0.5172568264
 H         -0.1218663403       -0.5027892035        1.4958657916
 H         -0.8584425492       -0.4956600409       -1.4437607103
 H         -1.9785367903       -1.1923076616       -0.2650696919
 H         -1.8128294905        1.4512083259       -0.8525188934
 H         -1.1447680631        1.3266213585        0.6367430779
