  16
        -21.77239953
 C          1.7153376137       -1.1917984327       -0.0302976428
 O          1.8142876020        0.1787067666        0.2836012030
 C          0.8443370009        0.9809663291       -0.3375097477
 C         -0.5605364763        0.8362466972        0.2595173876
 O         -1.2181747670       -0.2648911173       -0.3270909235
 C         -2.5286332082       -0.4355234119        0.1439224587
 H          0.7544333995       -1.6103120483        0.2797753732
 H          2.5234963165       -1.6859683212        0.5056170842
 H          1.8352033368       -1.3542883932       -1.1080980271
 H          1.1871169647        2.0083410880       -0.1935443714
 H          0.7882030441        0.7606519604       -1.4127927754
 H         -1.1337022726        1.7565299064        0.0661908140
 H         -0.4812655991        0.7014265491        1.3489567444
 H         -3.1450219003        0.4471276176       -0.0691453251
 H         -2.5435956046       -0.6195787129        1.2257701674
 H         -2.9376431671       -1.2987456820       -0.3770009332
  16
        -21.77196376
 C          2.1013495712       -0.8685655562        0.5502739192
 O          1.2528843543       -0.4712262771       -0.4962467067
 C          0.7020744224        0.8194734882       -0.3499967357
 C         -0.5097608161        0.9003626839        0.5965645732
 O         -1.7271843257        0.5517685599       -0.0131926286
 C         -1.8462152372       -0.8205904096       -0.3130499637
 H          2.9272197001       -0.1575630065        0.6790798705
 H          2.5009888861       -1.8402042617        0.2663328990
 H          1.5704290953       -0.9650101166        1.5040559534
 H          1.4761428415        1.5184778118       -0.0024772619
 H          0.3786368792        1.1176380183       -1.3509765031
 H         -0.6388366874        1.9364871779        0.9184537065
 H         -0.3348909931        0.2722261717        1.4830730691
 H         -1.0737964424       -1.1504340249       -1.0130677361
 H         -2.8288672004       -0.9491059668       -0.7624937918
 H         -1.7801635414       -1.4266512585        0.5995799457
  16
        -21.77189861
 C          2.5440719853       -0.6658587234       -0.1879734900
 O          1.7857216944        0.4781346280        0.1219999368
 C          0.4754162238        0.2204706879        0.5644778661
 C         -0.4753503773       -0.2184489216       -0.5654290475
 O         -1.7850391036       -0.4783956778       -0.1223475457
 C         -2.5447589774        0.6642208184        0.1891708169
 H          3.5634176823       -0.3183497599       -0.3463199947
 H          2.1905466460       -1.1626637304       -1.0975531080
 H          2.5291057269       -1.3855926976        0.6390153236
 H          0.4717746845       -0.5466933731        1.3530992725
 H          0.1330488672        1.1670537620        0.9904975327
 H         -0.1318789115       -1.1641612969       -0.9925072614
 H         -0.4733033658        0.5494154763       -1.3533766396
 H         -3.5634384416        0.3151340609        0.3481124055
 H         -2.5315438737        1.3846213538       -0.6372284454
 H         -2.1911623539        1.1608056881        1.0988455762
  16
        -21.77150756
 C          2.3668776438       -0.9598833360        0.0301494576
 O          1.8555745965        0.3468613643        0.1267892068
 C          0.4941840005        0.4200020241        0.4715490549
 C         -0.4476974336       -0.0255872383       -0.6646582190
 O         -1.7609529637        0.4561201728       -0.5199383285
 C         -2.4977117093       -0.1503200414        0.5134103038
 H          3.4440234026       -0.8566055454       -0.0870171271
 H          1.9625128057       -1.4972899673       -0.8342269157
 H          2.1545296647       -1.5363583866        0.9391314238
 H          0.3044326981       -0.1702523898        1.3813694024
 H          0.3035935498        1.4754593778        0.6834322844
 H         -0.4567489744       -1.1233981533       -0.7476107829
 H         -0.0825473925        0.4011775128       -1.6025954762
 H         -2.1221882550        0.1268752644        1.5042132697
 H         -2.4842156634       -1.2434331745        0.4203992124
 H         -3.5202581376        0.2072503732        0.4074824795
  16
        -21.77145485
 C          2.4313098049       -0.9338026419        0.2735641886
 O          1.9225096672        0.2295009267       -0.3328693107
 C          0.6998019462        0.6799733235        0.1917776717
 C         -0.5036118567       -0.1796933930       -0.2133240659
 O         -1.6696229958        0.4880694772        0.2053830052
 C         -2.8468974525       -0.1973098965       -0.1361743288
 H          2.4760704152       -0.8239703929        1.3637134144
 H          3.4384861431       -1.0648301355       -0.1179632906
 H          1.8353018521       -1.8200927571        0.0302877361
 H          0.7425183739        0.7435267585        1.2883505782
 H          0.5546101228        1.6848485922       -0.2109069528
 H         -0.4511991459       -1.1750034910        0.2562221428
 H         -0.5034441731       -0.3146203715       -1.3063109873
 H         -2.9368838490       -0.3178891999       -1.2229875149
 H         -3.6745264880        0.4049650584        0.2322409751
 H         -2.8807258304       -1.1901015054        0.3305809368
  16
        -21.77128786
 C          2.9606020921       -0.3092863811       -0.1484341753
 O          1.7454054905        0.0896132984        0.4322902875
 C          0.6286472975       -0.2374370789       -0.3594828329
 C         -0.6285306176        0.2384826919        0.3586044219
 O         -1.7456189023       -0.0906537008       -0.4318136106
 C         -2.9605193943        0.3092604118        0.1488044977
 H          2.9948346017       -1.3961898662       -0.2939971979
 H          3.7469972773       -0.0098900946        0.5412348523
 H          3.1179973818        0.1790334090       -1.1182371334
 H          0.6930526254        0.2480934519       -1.3446493289
 H          0.5686766196       -1.3242373041       -0.5198489893
 H         -0.5695438516        1.3255691523        0.5174509696
 H         -0.6916614464       -0.2457551358        1.3444933475
 H         -3.7472642133        0.0087274952       -0.5399522794
 H         -2.9946378138        1.3963882770        0.2925027951
 H         -3.1174394385       -0.1773749890        1.1194910189
  16
        -21.77072855
 C          1.9559296258       -0.8925648172        0.4183449675
 O          1.2964334840       -0.2403350555       -0.6403448862
 C          0.6490101629        0.9530593203       -0.2831292776
 C         -0.4949640624        0.7862947793        0.7389146443
 O         -1.3443669515       -0.3050361105        0.4972774326
 C         -2.0565849897       -0.2401627372       -0.7150189373
 H          2.6336791133       -0.2072103250        0.9426645889
 H          2.5334974535       -1.6957269848       -0.0356323647
 H          1.2472848323       -1.3191525614        1.1345812357
 H          1.3674659384        1.6772194129        0.1346474740
 H          0.2605503255        1.3516445807       -1.2235316994
 H         -1.0660397255        1.7289697009        0.7579918203
 H         -0.0871542463        0.6065614939        1.7366725663
 H         -1.3980807141       -0.3738581326       -1.5785401669
 H         -2.5889281105        0.7146894792       -0.8089765838
 H         -2.7776289863       -1.0549989515       -0.6849325020
  16
        -21.77072089
 C          1.9842364400       -0.8787840295        0.4178048697
 O          1.3009018428       -0.2467364444       -0.6376735791
 C          0.6452684524        0.9433149941       -0.2844679093
 C         -0.4953448949        0.7737777695        0.7404953299
 O         -1.3538631891       -0.3088458449        0.4922214465
 C         -2.0764129891       -0.2238516882       -0.7125511813
 H          2.5631646255       -1.6813210833       -0.0354983239
 H          1.2927093482       -1.3042709556        1.1512235467
 H          2.6629501356       -0.1797227017        0.9225114918
 H          1.3592989454        1.6744864412        0.1286169497
 H          0.2517663532        1.3350080338       -1.2256617957
 H         -1.0596566836        1.7202581495        0.7709649568
 H         -0.0845697432        0.5816513216        1.7346898447
 H         -1.4276596422       -0.3548750547       -1.5838672475
 H         -2.5999449343        0.7372612919       -0.7914358598
 H         -2.8055130664       -1.0315613627       -0.6846009592
  16
        -21.77011830
 C          2.6291980340       -0.8137268516        0.2415444484
 O          1.5139982350       -0.2751678256       -0.4191977042
 C          0.5811565930        0.3114881113        0.4596096928
 C         -0.5721750224        0.8964425301       -0.3735277546
 O         -1.8451947869        0.6415627851        0.1671465078
 C         -2.3334748586       -0.6531142533       -0.0889763511
 H          3.2732516585       -1.2351330201       -0.5272704417
 H          2.3339763466       -1.6029096957        0.9447961728
 H          3.1763993748       -0.0398212420        0.7941559920
 H          0.1878566792       -0.4453285188        1.1561755784
 H          1.0670746504        1.0932218273        1.0614693555
 H         -0.4892329498        0.4830862809       -1.3879706281
 H         -0.4897374559        1.9835668877       -0.4295624969
 H         -1.6950032285       -1.4298311290        0.3455793803
 H         -2.4181305867       -0.8339704371       -1.1675026168
 H         -3.3201647698       -0.7036339414        0.3672309402
  16
        -21.76969260
 C          1.8085494311       -1.2434725397        0.2145699096
 O          1.8306916833        0.1556201079        0.0804079955
 C          0.6737742745        0.7068419951       -0.5051374544
 C         -0.5094869312        0.8477027781        0.4802325674
 O         -1.7580483799        0.5321398156       -0.0913097408
 C         -2.0291430221       -0.8442185540       -0.1812369014
 H          1.0004083613       -1.5867263003        0.8706674690
 H          2.7645184759       -1.5234714684        0.6523777116
 H          1.6994330556       -1.7320399023       -0.7623899137
 H          0.9752978964        1.6894686025       -0.8729955366
 H          0.3555732997        0.1027542861       -1.3667751969
 H         -0.5977617875        1.8828135061        0.8157090820
 H         -0.3216193897        0.2181085277        1.3616667997
 H         -1.3133192019       -1.3690880901       -0.8242709901
 H         -3.0243658004       -0.9319395203       -0.6122677656
 H         -2.0203108831       -1.3139491559        0.8108958816
  16
        -21.76968599
 C          1.7796270333       -1.2498666899        0.2122711018
 O          1.8245485775        0.1492871778        0.0851574817
 C          0.6796708607        0.7230264853       -0.5023475688
 C         -0.5117361868        0.8667254534        0.4731717357
 O         -1.7532305491        0.5237844328       -0.0978157886
 C         -2.0024339758       -0.8575265943       -0.1732925358
 H          1.6565195077       -1.7316808214       -0.7663784733
 H          0.9699381948       -1.5827621631        0.8717814834
 H          2.7334326650       -1.5479769391        0.6427502073
 H          0.9985553852        1.7062922332       -0.8533310495
 H          0.3612451723        0.1356089145       -1.3754981999
 H         -0.6169681466        1.9068448929        0.7871263856
 H         -0.3198522107        0.2576474433        1.3679994932
 H         -1.9813791883       -1.3177169395        0.8232011885
 H         -1.2814245510       -1.3768198220       -0.8150545878
 H         -2.9982639187       -0.9651146702       -0.5984763052
  16
        -21.76951931
 C          2.7036066246       -0.6873051112       -0.1055063803
 O          1.4503348972       -0.3348800637        0.4169660530
 C          0.7618064471        0.5942618764       -0.3845393553
 C         -0.6366270671        0.8012820534        0.1848162558
 O         -1.4964028203       -0.1793741976       -0.3432445205
 C         -2.7785918089       -0.1480383138        0.2249478216
 H          3.1428470580       -1.3980161608        0.5913359598
 H          3.3587659955        0.1893387131       -0.1953532196
 H          2.6071879038       -1.1551676568       -1.0932172859
 H          1.3069924741        1.5517168892       -0.4024815257
 H          0.6707611198        0.2221335415       -1.4149818823
 H         -1.0057857154        1.8056602398       -0.0782321547
 H         -0.5862426128        0.7208904941        1.2800579814
 H         -3.2686485725        0.8188891499        0.0496907505
 H         -2.7407787493       -0.3306342184        1.3061282497
 H         -3.3519739451       -0.9373704075       -0.2564971150
  16
        -21.76914825
 C          2.8245670716       -0.5851493954        0.1203251413
 O          1.6027842306       -0.2107549878       -0.4602299950
 C          0.7061985222        0.3583255262        0.4657130064
 C         -0.6237254449        0.6323601872       -0.2365655200
 O         -1.6294889578       -0.1423945950        0.3744730362
 C         -2.8770401378       -0.0161487100       -0.2557559502
 H          3.4337727966       -1.0027655674       -0.6784499116
 H          2.6789667927       -1.3398457028        0.9033516959
 H          3.3389741079        0.2796855221        0.5588603936
 H          0.5168804395       -0.3371270958        1.2959300262
 H          1.1351253915        1.2832354666        0.8799614841
 H         -0.5144880073        0.3567311179       -1.2954194954
 H         -0.8899497503        1.6988360124       -0.1823040244
 H         -2.8318139087       -0.3489454789       -1.3002614677
 H         -3.2308907571        1.0227707716       -0.2340854016
 H         -3.5701722249       -0.6469565563        0.2969140451
  16
        -21.76894808
 C          2.5267964652       -0.8518695246        0.2455310372
 O          1.4257921390       -0.2389013049       -0.3693445292
 C          0.5901381259        0.4342820324        0.5386738863
 C         -0.5999315226        1.0306344285       -0.2209160874
 O         -1.5649240520        0.1012900057       -0.6387753078
 C         -2.3902167982       -0.3979546208        0.3827261238
 H          3.1590443033       -0.1145590924        0.7580023653
 H          3.0979718435       -1.3319441817       -0.5460206429
 H          2.2095195116       -1.6074030791        0.9762549439
 H          0.2434746006       -0.2565376188        1.3228285502
 H          1.1436844262        1.2514155698        1.0306755613
 H         -0.2225821860        1.4846241208       -1.1396833594
 H         -1.0657316944        1.8055748975        0.4081435242
 H         -2.8627601536        0.4187405891        0.9442599547
 H         -1.8459649480       -1.0388799440        1.0853132276
 H         -3.1589701815       -0.9898144560       -0.1104092701
  16
        -21.76894544
 C          2.2556133579       -0.9564600987       -0.3020527872
 O          1.6007126365       -0.0540669559        0.5526682324
 C          0.7970010704        0.8975630488       -0.0942832369
 C         -0.5370547656        0.3634053645       -0.6274889806
 O         -1.4229308096        0.1812733996        0.4488853307
 C         -2.6626785757       -0.3452368469        0.0593071468
 H          2.9267450702       -1.5380436588        0.3270403828
 H          2.8395728169       -0.4252468785       -1.0652505547
 H          1.5600505766       -1.6384737299       -0.8038252781
 H          0.5794081315        1.6534780016        0.6633458385
 H          1.3508398302        1.3596268289       -0.9265197872
 H         -0.3879100711       -0.5865632643       -1.1636695980
 H         -0.9536356995        1.0922294726       -1.3426419065
 H         -3.2605440198       -0.4358134495        0.9635750791
 H         -2.5511842764       -1.3338690659       -0.4050241684
 H         -3.1722552424        0.3187573260       -0.6516654739
  16
        -21.76873373
 C          1.6017244201       -1.2627196844       -0.1378006084
 O          1.3915781012       -0.0520478936        0.5511015823
 C          0.8786873392        0.9918563521       -0.2503556041
 C         -0.6427579560        1.1794426179       -0.1124317799
 O         -1.3888579795        0.0639803985       -0.5533709439
 C         -1.8257831726       -0.7871940628        0.4805705693
 H          2.3916917367       -1.1518439533       -0.8912396316
 H          0.6925744808       -1.6181084942       -0.6315938125
 H          1.9191460516       -1.9883276514        0.6094531278
 H          1.3629964953        1.9159081277        0.0842713232
 H          1.1287881127        0.8217704580       -1.3035145136
 H         -0.9355479261        2.0264299473       -0.7427607496
 H         -0.8860682613        1.4126311339        0.9301475843
 H         -2.3094310880       -1.6337089028       -0.0043599126
 H         -2.5526228367       -0.2776624848        1.1256449126
 H         -0.9961665713       -1.1430350296        1.0985202720
  16
        -21.76873002
 C          2.6519769264       -0.7670796845       -0.2203903380
 O          1.5782662601       -0.1029999395        0.3910085851
 C          0.5506974591        0.2345227088       -0.5098776084
 C         -0.5940284765        0.8919565879        0.2763935893
 O         -1.6517758163        0.0220717554        0.5925080275
 C         -2.5448712061       -0.2148079369       -0.4657826498
 H          2.3318766049       -1.7141434219       -0.6733542619
 H          3.3803429799       -0.9678954960        0.5623975429
 H          3.1136788480       -0.1453218742       -0.9988773290
 H          0.9385590999        0.9258844063       -1.2756433409
 H          0.1873160648       -0.6700102130       -1.0210657198
 H         -0.9768941937        1.7620834505       -0.2759083301
 H         -0.1862620584        1.2232088750        1.2340017794
 H         -2.0645125906       -0.7175570634       -1.3132303289
 H         -2.9897417211        0.7230837183       -0.8233742647
 H         -3.3274666768       -0.8577570505       -0.0678630820
  16
        -21.76872255
 C          2.4422306988       -0.8779945513       -0.2249563534
 O          1.6806754325        0.0102359548        0.5528857127
 C          0.7546903058        0.7743085738       -0.1779413691
 C         -0.5303866578        0.0187635640       -0.5527664037
 O         -1.5569744783        0.4179542276        0.3240053533
 C         -2.7651859027       -0.2598580788        0.1029161238
 H          3.1437493724       -1.3567111464        0.4553637765
 H          2.9986107263       -0.3415083710       -1.0045966070
 H          1.8253690909       -1.6471862091       -0.7041947827
 H          0.4695626878        1.6007438050        0.4768228421
 H          1.2327470572        1.1767319394       -1.0824576755
 H         -0.3668286202       -1.0665196732       -0.4688301865
 H         -0.8218660665        0.2400994528       -1.5923323721
 H         -3.4790283185        0.1328293937        0.8236273748
 H         -2.6511493392       -1.3410690903        0.2535970397
 H         -3.1391785055       -0.0857993365       -0.9146883312
