! r2scan-3c def2/J RI DEFGRID2 scfconv6 printgap
%output
    printlevel normal
end
* xyz 0 1
C 1.8324799472 -1.2676508081 -0.0471525166
O 1.0401838706 -0.3801435988 -0.8521957493
S -0.0544242967 0.4820926294 -0.1376624772
O -0.3880056659 1.5261846669 -1.0502263496
O 0.3826546871 0.836201868 1.1826131351
O -1.3163095372 -0.4417238787 -0.0556459103
C -1.4478003469 -1.3176593872 1.0754283104
H 2.8250320544 -1.2820539638 -0.4927715961
H 1.3905461054 -2.2628642939 -0.0673189146
H 1.8724953587 -0.8747881483 0.9674527098
H -1.0807093945 -2.3075762975 0.8081373871
H -2.5089291682 -1.3559318776 1.3128872801
H -0.8829855925 -0.8995633121 1.9069786081
*
