! r2scan-3c def2/J RI DEFGRID2 scfconv6 printgap
%output
    printlevel normal
end
%cpcm
    smd true
    smdsolvent "water"
end
* xyz 0 1
C -2.7882597352 0.0292648618 -0.0069115035
C -1.3761319179 0.584512903 -0.1569617941
C -0.329239264 -0.486911192 0.1333649923
C 1.1075813107 -0.0545935083 0.0141446406
C 1.5021216573 1.1643110687 -0.3165975497
C 2.0941402733 -1.1472769186 0.3087520676
H -3.5256811855 0.8006862443 -0.2148349149
H -2.9495601048 -0.3356023283 1.0051254772
H -2.949949229 -0.7950287937 -0.6981248351
H -1.2422081546 0.9586539627 -1.1738161608
H -1.2424507094 1.4207291804 0.5320938748
H -0.4854887455 -0.8688750413 1.1473192625
H -0.4873648349 -1.3297562596 -0.5470844533
H 2.5480988075 1.4134758611 -0.3857174244
H 0.8162176191 1.9636433183 -0.5320832611
H 1.9476687083 -1.9816102606 -0.3757445894
H 3.1150324757 -0.7892648258 0.2098852121
H 1.9506151819 -1.5213123467 1.3214787485
*
