  11
        -17.62368920
 C          2.0293143283        0.0643136750       -0.0001448703
 C          0.7594901066       -0.7741161631        0.0002011116
 C         -0.4821750247        0.0802950012       -0.0000324718
 O         -0.5200606590        1.2795597523        0.0000787880
 O         -1.5940121691       -0.6732028059       -0.0001014068
 H          2.9059702643       -0.5777955148        0.0000675225
 H          2.0590235288        0.7020786627       -0.8795173375
 H          2.0590710945        0.7027376031        0.8787465348
 H          0.7150210224       -1.4210827437       -0.8786306191
 H          0.7151250120       -1.4204677122        0.8795006096
 H         -2.3832009402       -0.1090271003       -0.0000909185
