  11
  -17.6236892000000       0.146742998033139      !input
 C          2.0293143283        0.0643136750       -0.0001448703
 C          0.7594901066       -0.7741161631        0.0002011116
 C         -0.4821750247        0.0802950012       -0.0000324718
 O         -0.5200606590        1.2795597523        0.0000787880
 O         -1.5940121691       -0.6732028059       -0.0001014068
 H          2.9059702643       -0.5777955148        0.0000675225
 H          2.0590235288        0.7020786627       -0.8795173375
 H          2.0590710945        0.7027376031        0.8787465348
 H          0.7150210224       -1.4210827437       -0.8786306191
 H          0.7151250120       -1.4204677122        0.8795006096
 H         -2.3832009402       -0.1090271003       -0.0000909185
  11
  -17.6236891500000       0.146735234104267      !md1
 C          2.0293225174        0.0643153382        0.0029935045
 C          0.7594996795       -0.7740923081       -0.0040624458
 C         -0.4821538116        0.0802742625       -0.0006769580
 O         -0.5200690242        1.2795068421       -0.0012465236
 O         -1.5940444146       -0.6731690870        0.0025018059
 H          2.0585822215        0.6959022436        0.8868339961
 H          2.9059655706       -0.5777905756       -0.0012174619
 H          2.0595242692        0.7088825029       -0.8713756676
 H          0.7164014858       -1.4147018754       -0.8876698664
 H          0.7138173897       -1.4267936381        0.8704282086
 H         -2.3831007626       -0.1088077747        0.0038800775
  11
  -17.6236890400000       0.146718154906540      !md1
 C          2.0293253752        0.0642907289       -0.0027417634
 C          0.7595059430       -0.7741253111        0.0037120782
 C         -0.4821226053        0.0802841469        0.0005564783
 O         -0.5201133454        1.2795839411        0.0011525215
 O         -1.5940373794       -0.6732042510       -0.0022728820
 H          2.0613388991        0.6925837839       -0.8888222039
 H          2.0568216060        0.7121021452        0.8693149825
 H          2.9059611731       -0.5777560402        0.0065138649
 H          0.7139632863       -1.4264260226       -0.8710841115
 H          0.7162600171       -1.4151407952        0.8870248385
 H         -2.3830435083       -0.1087690975       -0.0033573484
  11
  -17.6230888400000       7.774116327425280E-002 !mtd5
 C          1.8419456349       -0.4225592765       -0.4833903341
 C          0.8298103244       -0.3643640399        0.6633460903
 C         -0.4694434515        0.2017178890        0.1508228319
 O         -0.8007567226        1.3549435073        0.1987646370
 O         -1.2354362944       -0.7424378640       -0.4126186607
 H          2.0080761648        0.5719341115       -0.8908829892
 H          2.7894098396       -0.8136296753       -0.1218548409
 H          1.4772338637       -1.0702154251       -1.2769825034
 H          0.6507793537       -1.3668882721        1.0513772152
 H          1.2026530030        0.2820258220        1.4575552338
 H         -2.0502764183       -0.3523290521       -0.7663353975
  11
  -17.6230888200000       7.773951798556812E-002 !md6
 C          1.8422321466       -0.4216648368        0.4831633136
 C          0.8296066858       -0.3651328297       -0.6631549664
 C         -0.4693905102        0.2015234671       -0.1505616744
 O         -0.8002040957        1.3548860878       -0.1985655381
 O         -1.2360692477       -0.7424097612        0.4123024330
 H          1.4780989357       -1.0680004126        1.2780778899
 H          2.7895751221       -0.8131409651        0.1217948084
 H          2.0083394833        0.5733550596        0.8889020796
 H          1.2019154896        0.2802902938       -1.4584192422
 H          0.6505408616       -1.3681823462       -1.0498038933
 H         -2.0509374666       -0.3521392044        0.7657465385
  11
  -17.6230887400000       7.773293717961012E-002 !mtd2
 C          1.8388856036       -0.4332025090        0.4848772184
 C          0.8323433904       -0.3548053766       -0.6654836458
 C         -0.4690451009        0.2045255451       -0.1509361093
 O         -0.8069704142        1.3557856672       -0.1992824895
 O         -1.2292051145       -0.7436368943        0.4137289090
 H          2.7870806628       -0.8209739731        0.1218851724
 H          2.0056318764        0.5544129233        0.9082719151
 H          1.4688710776       -1.0919326630        1.2667704337
 H          1.2094941528        0.3033234245       -1.4479269134
 H          0.6539310790       -1.3509134315       -1.0700584378
 H         -2.0458779689       -0.3578875935        0.7678812878
  11
  -17.6230887400000       7.773293717961012E-002 !md4
 C          1.8388382022       -0.4327604564       -0.4849181920
 C          0.8322454236       -0.3552519413        0.6654460225
 C         -0.4690126023        0.2044207483        0.1509660440
 O         -0.8067444553        1.3556870118        0.1994628349
 O         -1.2293147898       -0.7434963926       -0.4138388902
 H          1.4689106608       -1.0909593831       -1.2672672209
 H          2.0054640199        0.5551589287       -0.9076288059
 H          2.7870468421       -0.8207166879       -0.1221567741
 H          0.6537813185       -1.3516018241        1.0694513388
 H          1.2093469998        0.3024134308        1.4482988787
 H         -2.0459197953       -0.3576274263       -0.7680579349
  11
  -17.6230887000000       7.772964698553846E-002 !mtd2
 C          1.8384516318       -0.4344919061        0.4851119540
 C          0.8326380546       -0.3537145658       -0.6657866985
 C         -0.4690145238        0.2048734182       -0.1511627741
 O         -0.8077665359        1.3559119750       -0.1993350151
 O         -1.2283351148       -0.7437435247        0.4139716057
 H          2.0054038022        0.5523403990        0.9103272127
 H          1.4676817773       -1.0944324020        1.2656659903
 H          2.7867205404       -0.8220329883        0.1219997448
 H          1.2103943397        0.3056774894       -1.4468785777
 H          0.6541650091       -1.3490427841       -1.0722894849
 H         -2.0451116014       -0.3585724148        0.7684950554
  11
  -17.6230886600000       7.772635693073050E-002 !mtd10
 C          1.8381516013       -0.4354786280       -0.4852743264
 C          0.8329062883       -0.3527957812        0.6659135880
 C         -0.4690459388        0.2050744938        0.1512068832
 O         -0.8083176144        1.3559429979        0.1995693596
 O         -1.2277450684       -0.7437999019       -0.4141799220
 H          2.7863409804       -0.8233424695       -0.1222745063
 H          1.4664772005       -1.0959035975       -1.2649336181
 H          2.0054883429        0.5507807633       -0.9115983554
 H          0.6546174354       -1.3475294316        1.0739540387
 H          1.2111313752        0.3077580229        1.4458095077
 H         -2.0446667563       -0.3590101041       -0.7687929750
  11
  -17.6226093400000       4.680455196817399E-002 !gc
 C          1.6715998864       -1.0475273151       -0.1732139069
 C          1.0497046621        0.2801927991        0.2358761981
 C         -0.4450604511        0.3497527662        0.0444853367
 O         -1.0871060170        1.3664344634        0.0720424051
 O         -1.0145041596       -0.8457499928       -0.1458952294
 H          1.4854473623       -1.2489810188       -1.2248588264
 H          2.7460042299       -1.0181692347       -0.0101179892
 H          1.2520356820       -1.8625687203        0.4096759538
 H          1.2376475441        0.4761919505        1.2953354309
 H          1.4877654235        1.1092519828       -0.3236014082
 H         -1.9736249119       -0.7448059415       -0.2509567064
  11
  -17.6226051300000       4.659650145256963E-002 !gc
 C          1.6689606489       -1.0547540774        0.1541945351
 C          1.0529013201        0.2885077785       -0.2101170409
 C         -0.4446935240        0.3512923157       -0.0395567436
 O         -1.0891324392        1.3665838743       -0.0637507981
 O         -1.0132744163       -0.8477359676        0.1296678254
 H          1.4658582267       -1.2992998248        1.1934610801
 H          1.2594551761       -1.8452744335       -0.4683214401
 H          2.7458431294       -1.0187609561        0.0097737581
 H          1.4815724927        1.0935505326        0.3904036413
 H          1.2581447403        0.5290428835       -1.2570505967
 H         -1.9739672760       -0.7505002952        0.2231795133
