! r2scan-3c def2/J RI DEFGRID2 scfconv6 printgap
%output
    printlevel normal
end
%cpcm
    smd true
    smdsolvent "water"
end
* xyz 0 1
C -4.2733641352 0.8043475641 0.0144382321
O -3.4687098337 -0.3640579741 -0.0011211671
C -2.1243999479 -0.2383840086 -0.0016335252
C -1.4010728073 -1.4379945498 -0.0208632779
C -0.0280824054 -1.4201138081 -0.0235273674
C 0.6645738563 -0.2055669435 -0.0063266856
C -0.0558771573 0.9869992531 0.0129800852
C -1.4358453134 0.9754652099 0.0151655532
C 2.1338359664 -0.2277405332 -0.0102354105
O 2.8051652042 -1.2463991406 -0.0321512089
O 2.6744280019 0.9931811426 0.0223598983
C 4.0985128438 1.0997269007 0.0250177174
H -4.0944061996 1.3922206948 0.9172659468
H -5.2987947848 0.4425956003 0.0094405736
H -4.0940087003 1.4161630005 -0.8722867562
H -1.9502624008 -2.3653633538 -0.0337269797
H 0.5405569696 -2.3372296761 -0.0388034264
H 0.4754553573 1.9250513734 0.0259768214
H -1.9678691418 1.9121956395 0.0300149327
H 4.3377189257 1.9820975172 0.6123475648
H 4.4510011773 1.2147125515 -1.000358032
H 4.5391351194 0.2033211535 0.4635871092
*
