! r2scan-3c def2/J RI DEFGRID2 scfconv6 printgap
%output
    printlevel normal
end
%cpcm
    smd true
    smdsolvent "water"
end
* xyz 0 1
C -1.0727226429 -0.6071149893 -0.0783877872
C 0.0204224795 0.2283763955 0.6034324887
C 1.3559136066 -0.5262883452 0.6345230071
O 1.8249983985 -0.8176009646 -0.6580023135
O 0.2238902961 1.4371468047 -0.1020162881
O -2.2511965983 0.1458868687 -0.2592276766
H -1.2579663827 -1.5179578498 0.4988072956
H -0.734355718 -0.8880429341 -1.0785458099
H -0.277586729 0.457822321 1.6394441488
H 1.2321729449 -1.4829025441 1.1440939471
H 2.0893774234 0.0814231526 1.1795741771
H 1.8769300101 0.0201189592 -1.1435879421
H -0.6315858889 1.713858049 -0.467975955
H -2.7035718737 0.250096314 0.5895118852
*
