  16
        -19.86574756
 C          2.5258224796       -0.0679914429        0.0593039493
 C          1.2653940184        0.7683844584       -0.1224609643
 C          0.0000121109       -0.0482695379       -0.0001873189
 O         -0.0000262204       -1.2621074556       -0.0002461206
 C         -1.2653219640        0.7684359446        0.1221221205
 C         -2.5258754706       -0.0679778731       -0.0585656859
 H          2.5335276336       -0.8916745872       -0.6505891028
 H          3.4121582329        0.5404689334       -0.0947993363
 H          2.5579433896       -0.4903669703        1.0608554928
 H          1.2319613385        1.5839364486        0.6007548567
 H          1.2588322606        1.2156847024       -1.1196225018
 H         -1.2321599485        1.5834600749       -0.6017037799
 H         -1.2583320360        1.2164772783        1.1189394354
 H         -3.4121279461        0.5406755940        0.0952279410
 H         -2.5334585004       -0.8910404397        0.6520319185
 H         -2.5582996953       -0.4912514808       -1.0597155783
  16
        -19.86538152
 C          2.0639009768        1.0302086329        0.4817575359
 C          1.4912173056       -0.0526318028       -0.4275231507
 C          0.0476748366       -0.4188405792       -0.1740253828
 O         -0.3350802835       -1.5684102632       -0.2853328040
 C         -0.8816846155        0.7108372042        0.1858841520
 C         -2.3454551019        0.2884966114        0.1865117861
 H          1.5628864873        1.9814535723        0.3317479550
 H          1.9687347057        0.7420549782        1.5256344803
 H          3.1196165334        1.1634870825        0.2613164105
 H          1.5408724412        0.2824783509       -1.4676949152
 H          2.0835990281       -0.9670793753       -0.3541402965
 H         -0.7170748228        1.5321496338       -0.5129915471
 H         -0.5958905873        1.0621127698        1.1797671883
 H         -2.9797560631        1.1175416558        0.4864452702
 H         -2.4967480353       -0.5402955746        0.8740554589
 H         -2.6437185973       -0.0441036493       -0.8050191226
  16
        -19.86537872
 C          2.3469037378        0.3082398245        0.1214309082
 C          0.8828126260        0.7275532334        0.0840397993
 C         -0.0495211641       -0.4379097842       -0.1202373137
 O          0.3337583424       -1.5924489593       -0.0945691955
 C         -1.4975327464       -0.1063211657       -0.3949344768
 C         -2.0574192555        1.0864061892        0.3737978912
 H          2.9837174429        1.1682456937        0.3070519090
 H          2.5066903078       -0.4271997177        0.9063202914
 H          2.6343112593       -0.1468020768       -0.8235221440
 H          0.6079229096        1.2019085649        1.0286515260
 H          0.7095784667        1.4541892795       -0.7110130003
 H         -2.0873197479       -1.0029303270       -0.1930389064
 H         -1.5646347889        0.0894863384       -1.4691606021
 H         -1.5603937167        2.0096041142        0.0926009886
 H         -1.9453775605        0.9375087205        1.4448419958
 H         -3.1167159977        1.1902541315        0.1546138789
  16
        -19.86503505
 C          2.4604003172       -0.0149517375       -0.2891995817
 C          1.1722141936        0.7687740236       -0.0773260528
 C         -0.0109082292       -0.1111869178        0.2292313776
 O          0.0638970502       -1.3222778760        0.2861897418
 C         -1.3185136659        0.6178560735        0.4532140090
 C         -2.3726000148        0.1392793622       -0.5471614423
 H          3.2833843051        0.6573436286       -0.5129457909
 H          2.7034608973       -0.5869489368        0.6030567286
 H          2.3422156015       -0.7164030371       -1.1117083496
 H          1.2827695834        1.4756492089        0.7480375232
 H          0.9249581874        1.3492368359       -0.9692812515
 H         -1.1759202499        1.6940439536        0.3719543973
 H         -1.6590783922        0.3788917217        1.4629281193
 H         -3.3354666775        0.5895247764       -0.3242857231
 H         -2.4678613259       -0.9428058410       -0.4946707398
 H         -2.0856563049        0.4106314059       -1.5603751811
  16
        -19.86461053
 C          2.1715615319        0.6928399348        0.3402369859
 C          1.0801383858        0.3548647393       -0.6820938813
 C         -0.0000545044       -0.4452849451       -0.0001025866
 O          0.0002490820       -1.6611743664       -0.0003904534
 C         -1.0805436982        0.3540375191        0.6823879830
 C         -2.1713909114        0.6935497860       -0.3400396574
 H          1.7721987399        1.3031482269        1.1458966219
 H          2.5801625428       -0.2200793345        0.7674010350
 H          2.9738157066        1.2392900507       -0.1469255763
 H          0.6641906906        1.2747528224       -1.0905650153
 H          1.5128559784       -0.2437198479       -1.4845772944
 H         -0.6646859894        1.2733220235        1.0923287139
 H         -1.5137302876       -0.2455756431        1.4838501595
 H         -1.7716044966        1.3050032005       -1.1446165441
 H         -2.9738701922        1.2393126572        0.1475086196
 H         -2.5798403636       -0.2187081369       -0.7687364171
  16
        -19.86459418
 C          1.7613306959        1.1322365576        0.3054207008
 C          1.1225765293        0.1105372906       -0.6356243685
 C          0.0000232659       -0.6699481969        0.0000065701
 O         -0.0005580351       -1.8877503700       -0.0007185948
 C         -1.1218618405        0.1109169636        0.6363359916
 C         -1.7614501509        1.1315758446       -0.3053140519
 H          2.1118647806        0.6441418873        1.2116944207
 H          2.6139630001        1.5923432312       -0.1864843317
 H          1.0597454805        1.9144361678        0.5778166085
 H          0.7184174771        0.6214482091       -1.5116670084
 H          1.8733313952       -0.6052634430       -0.9763060203
 H         -0.7170373417        0.6228027670        1.5114811259
 H         -1.8723118726       -0.6046239563        0.9782236846
 H         -2.6135080183        1.5924126987        0.1868702868
 H         -2.1129572312        0.6423869105       -1.2106198528
 H         -1.0600198927        1.9133140590       -0.5794313127
  16
        -19.86412085
 C          2.1860328501        0.7565460977       -0.4235837523
 C          1.2580585305        0.2317739552        0.6765201119
 C          0.0278220556       -0.3876113294        0.0653937673
 O         -0.1480199106       -1.5905293324        0.0495221325
 C         -0.9774090143        0.5692236450       -0.5316463949
 C         -2.3228180157        0.4251951625        0.1847231342
 H          3.0781768907        1.1843025598        0.0243739698
 H          2.4838745829       -0.0564760012       -1.0814208143
 H          1.6936341578        1.5206351599       -1.0183556310
 H          1.7786192072       -0.5242642072        1.2661591363
 H          0.9572559427        1.0546553649        1.3258237498
 H         -1.1100947908        0.3031659124       -1.5822682424
 H         -0.6221197949        1.5954184774       -0.4624783621
 H         -3.0727608385        1.0450933994       -0.2977119610
 H         -2.2339105754        0.7286579372        1.2252005362
 H         -2.6489362906       -0.6118661768        0.1553140674
