  14
        -17.24399716
 C         -3.4477408076       -0.5977539064       -0.1515902503
 C         -2.0686679958       -0.2841895091        0.4149396744
 C         -1.4033463329        0.8676877310       -0.3351088619
 C         -0.0447973943        1.2328199998        0.2276730413
 Br         1.2740649051       -0.2164592327       -0.0273495692
 H         -4.0997308639        0.2689659062       -0.0717508305
 H         -3.3744950172       -0.8779901857       -1.1997672828
 H         -3.9015716597       -1.4214866838        0.3926825376
 H         -1.4383559554       -1.1737903432        0.3442281995
 H         -2.1594571050       -0.0231573644        1.4720378529
 H         -1.3072675976        0.6090543321       -1.3919711467
 H         -2.0323642048        1.7587314768       -0.2636975494
 H         -0.0815879430        1.4011333543        1.3025397743
 H          0.3849627708        2.0975856463       -0.2740750400
  14
        -17.24377614
 C         -3.8400312297       -0.7701446798       -0.0890390062
 C         -2.7358301664        0.1134568974        0.4790944343
 C         -1.3640826632       -0.3018255209       -0.0542325064
 C         -0.2790425753        0.5864019332        0.5205390955
 Br         1.5023944509        0.0712505530       -0.1538879153
 H         -3.6744766962       -1.8097406513        0.1829505915
 H         -4.8072279586       -0.4623809717        0.2988157684
 H         -3.8651730404       -0.6992447887       -1.1737169049
 H         -2.7369002076        0.0430375342        1.5686702242
 H         -2.9279871219        1.1543955714        0.2114206399
 H         -1.1668568957       -1.3422557515        0.2135058350
 H         -1.3580671092       -0.2302791795       -1.1441543818
 H         -0.2158948201        0.5040479320        1.6042544477
 H         -0.4099089962        1.6282227923        0.2330627894
  14
        -17.24316379
 C         -2.8976801779       -0.5953870084       -0.5861079244
 C         -2.1165913703       -0.1606063532        0.6492343756
 C         -1.3284989000        1.1332437527        0.4422815687
 C         -0.2035233099        1.0194751616       -0.5676115425
 Br         1.1945919680       -0.2464974756        0.0220281816
 H         -3.5456159664        0.2073274581       -0.9310778154
 H         -2.2321935210       -0.8779267265       -1.3982326701
 H         -3.5155504662       -1.4575220059       -0.3493989710
 H         -1.4315220781       -0.9576454156        0.9474741035
 H         -2.8146546809       -0.0032307125        1.4732692498
 H         -2.0030327244        1.9143998838        0.0825090200
 H         -0.9172553258        1.4587333663        1.4004730981
 H          0.3119526491        1.9686374186       -0.7009053995
 H         -0.5458740738        0.6445360784       -1.5291491967
  14
        -17.24315155
 C         -3.4115498048       -0.6909569172       -0.5228793848
 C         -2.7834124112        0.1047138155        0.6162450805
 C         -1.2881754984       -0.1717846265        0.7949180794
 C         -0.4799289296        0.3431914774       -0.3802383040
 Br         1.4533437613        0.0795062549       -0.0809991916
 H         -3.0198536033       -0.3784543367       -1.4873620168
 H         -3.2174252006       -1.7536054296       -0.3972915669
 H         -4.4876281128       -0.5393444795       -0.5326956208
 H         -3.2851378528       -0.1569510867        1.5491312487
 H         -2.9361460339        1.1722189299        0.4454245936
 H         -0.9416234433        0.3178292113        1.7079288054
 H         -1.1245659092       -1.2457198816        0.9084317307
 H         -0.6101863766        1.4144691920       -0.5244383881
 H         -0.7010518846       -0.1899879042       -1.3019234926
  14
        -17.24115999
 C         -2.2943945525       -0.9600028615        0.1128437363
 C         -2.4566563283        0.5488245477        0.2570519866
 C         -1.2746896919        1.3564330646       -0.2831828412
 C          0.0187566795        1.1768816246        0.4945483125
 Br         1.0903879332       -0.3720072586       -0.1075790605
 H         -1.5025832535       -1.3387467711        0.7534642961
 H         -3.2176753054       -1.4618741759        0.3915183875
 H         -2.0579123740       -1.2242048397       -0.9156156854
 H         -2.6102285423        0.7987720499        1.3093746273
 H         -3.3487187010        0.8606104637       -0.2896260245
 H         -1.1114603712        1.1125409168       -1.3349452766
 H         -1.5329332411        2.4169889136       -0.2274387852
 H         -0.1627404475        1.0118062740        1.5550225844
 H          0.6847027875        2.0270057749        0.3600977301
