  22
        -29.43850685
 C         -2.6298922667        0.4862996013       -0.2739143669
 C         -2.0713344527       -0.4911054240       -1.0810566777
 C         -0.8604273722       -1.0650474566       -0.7401227522
 C         -0.1860124853       -0.6697056913        0.4106024423
 C         -0.7590181119        0.3078879386        1.2167937280
 C         -1.9723822691        0.8824741088        0.8776149754
 C          1.1450258960       -1.2763108063        0.7557375846
 C          2.2720784815       -0.7700627531       -0.1562766761
 C          2.5043253761        0.7404308390       -0.0457499360
 O          1.5962699478        1.5072599908       -0.7971935366
 H         -3.5762364028        0.9333180738       -0.5391348726
 H         -2.5834562857       -0.8091151123       -1.9772097300
 H         -0.4318738485       -1.8315817703       -1.3697758154
 H         -0.2525881945        0.6197324315        2.1198183489
 H         -2.4047816559        1.6392734561        1.5154985905
 H          1.0832542913       -2.3629234136        0.6562554508
 H          1.3973874898       -1.0462691435        1.7933599855
 H          2.0422720926       -1.0056618774       -1.1970824778
 H          3.1960241756       -1.2847929835        0.1133711272
 H          2.4810544524        1.0424352740        1.0124724104
 H          3.4886308989        0.9917420174       -0.4495926949
 H          0.7001275121        1.2950383659       -0.5067545053
  22
        -29.43780489
 C         -2.8635021998        0.0336414095        0.5270059224
 C         -2.3651482333       -1.2482499124        0.3668650231
 C         -1.1026135989       -1.4395538375       -0.1645722723
 C         -0.3216048240       -0.3553824800       -0.5456672949
 C         -0.8307598847        0.9263647427       -0.3821913254
 C         -2.0931976087        1.1203755529        0.1508864466
 C          1.0625967316       -0.5703062370       -1.0878515689
 C          2.0739296304       -0.8022696775        0.0434401886
 C          2.2940502364        0.4597041128        0.8792155547
 O          2.8043946521        1.5347343418        0.1263535725
 H         -3.8494614114        0.1841048033        0.9418911617
 H         -2.9626524223       -2.1009087905        0.6560758300
 H         -0.7185728341       -2.4426241357       -0.2901192716
 H         -0.2311627057        1.7768076876       -0.6732215335
 H         -2.4769233474        2.1230187436        0.2727219173
 H          1.3747584813        0.3048718750       -1.6604989462
 H          1.0682485935       -1.4392076588       -1.7498527378
 H          3.0294245929       -1.1171434453       -0.3871858796
 H          1.7192372732       -1.5980097142        0.7005680341
 H          1.3427622847        0.8119147722        1.2839258356
 H          2.9657781312        0.2292665226        1.7200203988
 H          3.6318801230        1.2577096479       -0.2833275589
  22
        -29.43771905
 C         -2.8761957029        0.2323438612        0.4714049860
 C         -2.2292530811       -0.8392836741        1.0632500428
 C         -0.9984363713       -1.2542249685        0.5881431532
 C         -0.3943804074       -0.6064444309       -0.4829986472
 C         -1.0535206386        0.4652737534       -1.0706520897
 C         -2.2857582232        0.8824219043       -0.5983341915
 C          0.9588276470       -1.0464432947       -0.9668009190
 C          2.0740607529       -0.5684904838       -0.0295036586
 C          2.1870863923        0.9561611645       -0.0015255667
 O          3.2529475144        1.4043427399        0.8029470277
 H         -3.8375756867        0.5572363563        0.8410179051
 H         -2.6862926835       -1.3540327580        1.8960238882
 H         -0.5002187264       -2.0951840424        1.0503358155
 H         -0.5974639995        0.9768401773       -1.9063989339
 H         -2.7859874810        1.7175631256       -1.0667294058
 H          1.1413325168       -0.6546051694       -1.9690259547
 H          0.9902509942       -2.1373953463       -1.0159027027
 H          3.0296889472       -0.9839231220       -0.3564768966
 H          1.8763464958       -0.9309109893        0.9836268502
 H          2.4026059088        1.3361895337       -1.0030359867
 H          1.2369483760        1.3929905428        0.3391332579
 H          3.1200075576        1.0790498658        1.7002679601
  22
        -29.43754903
 C         -3.2366021589       -0.0894861261       -0.0765772023
 C         -2.5670712747       -1.1102158543       -0.7295568186
 C         -1.1981271051       -1.2464341313       -0.5840528581
 C         -0.4786565506       -0.3684353435        0.2166650342
 C         -1.1603243835        0.6529376734        0.8659991089
 C         -2.5293479856        0.7921033752        0.7226334248
 C          1.0123516561       -0.4917344856        0.3372858483
 C          1.7110054361        0.3032492939       -0.7724190798
 C          3.2300817610        0.2995091396       -0.5958910883
 O          3.6444473121        0.9107618652        0.6021910161
 H         -4.3055737116        0.0172419414       -0.1884477194
 H         -3.1135831331       -1.8028298875       -1.3532727087
 H         -0.6801128166       -2.0464927651       -1.0941750400
 H         -0.6134587151        1.3418098174        1.4948449114
 H         -3.0461185504        1.5895787495        1.2369341891
 H          1.3104706470       -1.5393398541        0.2636474916
 H          1.3468854990       -0.1100591660        1.3038512493
 H          1.3484171363        1.3357191167       -0.7591685224
 H          1.4647199886       -0.1234943108       -1.7461312477
 H          3.6018390369       -0.7262925509       -0.5403152729
 H          3.7012311808        0.7932626997       -1.4594643845
 H          3.2998985125        1.8109078089        0.6222741711
  22
        -29.43743992
 C         -2.8758996233        0.2549824439        0.4535386360
 C         -2.2327496620       -0.7915653803        1.0924391768
 C         -1.0010611000       -1.2281859832        0.6399083025
 C         -0.3928262688       -0.6270050641       -0.4553747199
 C         -1.0475374557        0.4200950451       -1.0899806377
 C         -2.2806672220        0.8588318581       -0.6402042567
 C          0.9602874182       -1.0904333890       -0.9168140341
 C          2.0754880334       -0.5715271690       -0.0017408179
 C          2.1929996438        0.9520769275       -0.0484906393
 O          3.1827115592        1.4465737099        0.8224102752
 H         -3.8377566596        0.5971223677        0.8059772628
 H         -2.6930911532       -1.2692225005        1.9451945914
 H         -0.5050387169       -2.0483603924        1.1397724430
 H         -0.5879337658        0.8957001358       -1.9449704706
 H         -2.7774760855        1.6747682513       -1.1447554417
 H          1.1435459724       -0.7448610623       -1.9364736619
 H          0.9905222684       -2.1825510596       -0.9167500053
 H          3.0282089155       -1.0137834783       -0.3096159935
 H          1.8790858078       -0.8753071350        1.0283742864
 H          2.3943931109        1.2769890601       -1.0809688394
 H          1.2584774798        1.4113704284        0.2814025435
 H          4.0256868416        1.0364518419        0.5981281351
  22
        -29.43727361
 C         -2.8184834308        0.4351368133       -0.0211742059
 C         -2.1265924466       -0.0749755897       -1.1052295205
 C         -0.8567503058       -0.5987634611       -0.9339909113
 C         -0.2601233750       -0.6214705060        0.3198828985
 C         -0.9678528723       -0.1120223397        1.4026950164
 C         -2.2360052298        0.4124896420        1.2351466249
 C          1.1314537635       -1.1567950520        0.5112893962
 C          2.1427549711       -0.0361765420        0.7975039603
 C          2.1829571692        1.0302143719       -0.3011924700
 O          2.6270217743        0.5394432661       -1.5424890617
 H         -3.8085711353        0.8455020879       -0.1533917153
 H         -2.5751303616       -0.0652028207       -2.0879582145
 H         -0.3297802450       -1.0026183840       -1.7885043816
 H         -0.5199592810       -0.1314152929        2.3861295326
 H         -2.7729713685        0.8039598346        2.0868813977
 H          1.4425665071       -1.7143740876       -0.3755308160
 H          1.1422299251       -1.8506746137        1.3555220399
 H          3.1373447165       -0.4740299787        0.9010649045
 H          1.8852239947        0.4577976877        1.7354453679
 H          1.1893556170        1.4906162640       -0.4029575979
 H          2.8975442226        1.8098087446       -0.0262830827
 H          1.9978542862       -0.1241969492       -1.8457405904
  22
        -29.43726162
 C         -3.2714349740       -0.0518920122        0.0065200771
 C         -2.5888570543       -0.8493990139       -0.8957193194
 C         -1.2314089276       -1.0675264197       -0.7402114173
 C         -0.5378776146       -0.4956152186        0.3184359691
 C         -1.2321330563        0.3042397272        1.2172083300
 C         -2.5892423619        0.5244781467        1.0643761448
 C          0.9440039227       -0.6959225537        0.4621256738
 C          1.7044884184        0.4210272810       -0.2598645518
 C          3.2184892992        0.2405032624       -0.1474887983
 O          3.9377423914        1.2933347752       -0.7437693043
 H         -4.3312040629        0.1184586883       -0.1132870989
 H         -3.1154889689       -1.3035533782       -1.7226058943
 H         -0.7035149576       -1.6932139010       -1.4464302086
 H         -0.7037774645        0.7547582144        2.0455639598
 H         -3.1164373907        1.1468025778        1.7728697164
 H          1.2340717772       -1.6594242813        0.0371929497
 H          1.2213437804       -0.6916219848        1.5180931770
 H          1.4291852785        1.3877185710        0.1669993093
 H          1.4168160373        0.4288451332       -1.3157290210
 H          3.5220400409        0.2409566888        0.9021585249
 H          3.5112104116       -0.7238932649       -0.5903918016
 H          3.6714497925        1.3662002562       -1.6671748487
  22
        -29.43680355
 C         -3.2560285291       -0.0924830891       -0.0645144895
 C         -2.5745688283       -1.0657931746       -0.7747942836
 C         -1.2044334629       -1.1958875701       -0.6341362367
 C         -0.4973004718       -0.3588775738        0.2191118780
 C         -1.1900043966        0.6157776689        0.9257418855
 C         -2.5599587390        0.7485730213        0.7866157508
 C          0.9959147836       -0.4731941637        0.3389367151
 C          1.6815994110        0.4429412785       -0.6836961673
 C          3.2066409215        0.3128486642       -0.6614554081
 O          3.7967775963        0.8262403063        0.5081762669
 H         -4.3257721756        0.0093072032       -0.1728571825
 H         -3.1120086388       -1.7261810469       -1.4398175565
 H         -0.6768525019       -1.9583186462       -1.1901389317
 H         -0.6515409453        1.2746054907        1.5926086474
 H         -3.0858613580        1.5097851482        1.3443891506
 H          1.3053059287       -1.5059936642        0.1595520850
 H          1.2997536432       -0.1910382455        1.3503390056
 H          1.4108051953        1.4806850690       -0.4799921215
 H          1.3267509225        0.1904429826       -1.6845119817
 H          3.4895379245       -0.7416346381       -0.8019569007
 H          3.6380448173        0.8958668130       -1.4786739466
 H          3.4406602817        0.3512394324        1.2669779760
  22
        -29.43670874
 C         -2.6510596083        0.4134602314        0.3342082106
 C         -2.0993493609       -0.6973073683        0.9494760340
 C         -0.8739568989       -1.1832057634        0.5311352077
 C         -0.1803135368       -0.5668966514       -0.5041414578
 C         -0.7457127181        0.5420147020       -1.1178071455
 C         -1.9714835509        1.0300885258       -0.7017953572
 C          1.1608008838       -1.0947290311       -0.9318202561
 C          2.2520134270       -0.8296873540        0.1138850201
 C          2.5851261041        0.6538721811        0.2775240424
 O          1.5281847087        1.4307080028        0.7838134621
 H         -3.6077576596        0.7944816221        0.6603288048
 H         -2.6261402987       -1.1877162515        1.7557762612
 H         -0.4520390066       -2.0564269678        1.0108509105
 H         -0.2182311946        1.0321268626       -1.9228193515
 H         -2.3974146679        1.8960509858       -1.1871037619
 H          1.4551498471       -0.6347479651       -1.8766608977
 H          1.0892551455       -2.1748715848       -1.0865935593
 H          3.1657000465       -1.3489557248       -0.1830561122
 H          1.9357897445       -1.2325216088        1.0802991624
 H          3.4679422110        0.7478885034        0.9308778818
 H          2.8305872502        1.0954144110       -0.6915818004
 H          1.1761366235        1.0028753080        1.5722144689
  22
        -29.43558734
 C         -2.8740130033        0.2370722799        0.4756485623
 C         -2.2016712471       -0.7905173830        1.1156204106
 C         -0.9715470435       -1.2130458733        0.6458942769
 C         -0.3926421993       -0.6163544918       -0.4679683291
 C         -1.0768245755        0.4116194110       -1.1030844179
 C         -2.3089168250        0.8360733579       -0.6365646737
 C          0.9591503636       -1.0637483619       -0.9485151359
 C          2.0792596134       -0.5568775925       -0.0343204795
 C          2.1691443498        0.9651156375       -0.0227598998
 O          3.2440033657        1.3367708415        0.8145528055
 H         -3.8351938430        0.5675955155        0.8409849420
 H         -2.6387567775       -1.2647345847        1.9824386119
 H         -0.4528035290       -2.0184310115        1.1463243553
 H         -0.6411934709        0.8832895914       -1.9729461541
 H         -2.8288700947        1.6366117058       -1.1428380791
 H          1.1306143892       -0.7003921206       -1.9639072390
 H          0.9958518541       -2.1552588936       -0.9668751362
 H          3.0391117763       -0.9545268635       -0.3675600662
 H          1.9122879676       -0.8976905820        0.9882978897
 H          2.3354430841        1.3358440139       -1.0456604262
 H          1.2254117805        1.3900677426        0.3482967542
 H          3.2955688538        2.2968060465        0.8546814008
  22
        -29.43558302
 C         -2.8460511737        0.0196463758        0.5410180455
 C         -2.3182001339       -1.2534305445        0.4065653346
 C         -1.0611111705       -1.4286146511       -0.1429028698
 C         -0.3129219888       -0.3371920888       -0.5680683984
 C         -0.8534282443        0.9348452200       -0.4312603353
 C         -2.1106345826        1.1137452565        0.1193913466
 C          1.0667162151       -0.5335491616       -1.1271546658
 C          2.0912119425       -0.7988762886       -0.0162208883
 C          2.2617496779        0.4069038713        0.9022741082
 O          2.7985797875        1.4785658195        0.1540953809
 H         -3.8278745673        0.1575213956        0.9699725142
 H         -2.8891490839       -2.1119119079        0.7303475598
 H         -0.6546104297       -2.4249604644       -0.2481262580
 H         -0.2822974073        1.7909852497       -0.7614670442
 H         -2.5182993526        2.1097749716        0.2186024532
 H          1.3800444267        0.3558699204       -1.6742166353
 H          1.0684482235       -1.3836877022       -1.8129000976
 H          3.0574508666       -1.0243038931       -0.4696085202
 H          1.7776710166       -1.6529355971        0.5865762595
 H          1.2883923409        0.6856961709        1.3306598992
 H          2.9396175279        0.1430479612        1.7278243902
 H          2.8885510843        2.2464009682        0.7262229459
  22
        -29.43509414
 C         -3.2401841595       -0.0708625656       -0.0729807225
 C         -2.5863943702       -1.1065809831       -0.7176278837
 C         -1.2169297945       -1.2527411465       -0.5833684507
 C         -0.4821682108       -0.3703254481        0.1977833321
 C         -1.1481832074        0.6668789920        0.8387631118
 C         -2.5168988478        0.8162947801        0.7061237895
 C          1.0080966434       -0.5040111339        0.3133811298
 C          1.7096377676        0.3584269679       -0.7418706640
 C          3.2268057967        0.2968146207       -0.5988301958
 O          3.5918385152        0.8885061434        0.6305151347
 H         -4.3093916442        0.0436998515       -0.1758015619
 H         -3.1450749080       -1.8030871991       -1.3263293590
 H         -0.7116615037       -2.0645919208       -1.0880432929
 H         -0.5863461785        1.3594007274        1.4493363510
 H         -3.0220208185        1.6260226980        1.2128872637
 H          1.3026381075       -1.5470202364        0.1773750947
 H          1.3420852408       -0.1746153716        1.2981251659
 H          1.3932669382        1.3959494495       -0.6254679791
 H          1.4324661166        0.0226975263       -1.7428642355
 H          3.5616756232       -0.7506398703       -0.6335544759
 H          3.6961138463        0.8361643412       -1.4351165268
 H          4.5478543533        0.8481947957        0.7294175305
  22
        -29.43504151
 C         -3.2762035597       -0.2731477288        0.3499789654
 C         -2.7409234658       -0.9952698995       -0.7035117395
 C         -1.3810343216       -0.9598967000       -0.9462695924
 C         -0.5262490487       -0.2043224750       -0.1484391360
 C         -1.0759778138        0.5169772886        0.9027042767
 C         -2.4384540964        0.4815229883        1.1502681175
 C          0.9426344503       -0.1929788764       -0.4792577376
 C          1.8704487452        0.2475363652        0.6510820744
 C          3.3386417134        0.1213267292        0.2382536044
 O          3.6712680548        0.9294019369       -0.8654217447
 H         -4.3380798658       -0.2999894386        0.5451473215
 H         -3.3850381238       -1.5893130757       -1.3355971967
 H         -0.9695417762       -1.5272426534       -1.7695549710
 H         -0.4465004609        1.1146136775        1.5438045194
 H         -2.8454582336        1.0486670260        1.9751634523
 H          1.1033132194        0.4645781184       -1.3400254593
 H          1.2336350273       -1.1982834044       -0.7955892886
 H          1.7008807332       -0.3691470062        1.5355744315
 H          1.6736020620        1.2897901382        0.9163480814
 H          3.9833532304        0.3637903651        1.0968068830
 H          3.5575817628       -0.9016733950       -0.0768008278
 H          3.4603811488        1.8453001619       -0.6509076940
  22
        -29.43488535
 C         -3.2692173987       -0.0411616338       -0.0047897662
 C         -2.5770017789       -0.8155869697       -0.9198774251
 C         -1.2209983090       -1.0361525588       -0.7569234874
 C         -0.5380045726       -0.4894098951        0.3217501612
 C         -1.2415229211        0.2878577980        1.2326670514
 C         -2.5975930716        0.5103789480        1.0726851914
 C          0.9418589232       -0.6966404060        0.4747345641
 C          1.7119540673        0.4076501774       -0.2549153933
 C          3.2206220034        0.2304505630       -0.1239478816
 O          3.8537989317        1.2835943634       -0.8184187902
 H         -4.3281140073        0.1309371261       -0.1302506176
 H         -3.0953799981       -1.2495909947       -1.7626541999
 H         -0.6850526799       -1.6426118797       -1.4734633612
 H         -0.7217687787        0.7197187691        2.0763400932
 H         -3.1321048469        1.1152247373        1.7909064548
 H          1.2270152881       -1.6666088369        0.0611548103
 H          1.2125761204       -0.6842909509        1.5329339132
 H          1.4389112834        1.3828880942        0.1508478976
 H          1.4512941644        0.4062420323       -1.3143365121
 H          3.5060271869        0.2445395249        0.9388706685
 H          3.5189982320       -0.7416601513       -0.5448621288
 H          4.8081486872        1.1842370550       -0.7439231675
  22
        -29.43480997
 C         -3.3379589639       -0.1789156029        0.2737615305
 C         -2.8223767807       -1.2938964012       -0.3665420747
 C         -1.4618093478       -1.4006759211       -0.5799424568
 C         -0.5866088745       -0.4011088643       -0.1623614179
 C         -1.1151117119        0.7106612834        0.4774559332
 C         -2.4796560514        0.8198950851        0.6937613910
 C          0.8848005989       -0.5857677721       -0.4359496092
 C          1.7991076556        0.5160967536        0.0883992633
 C          3.2643721261        0.2140944913       -0.2322367361
 O          4.1348722745        1.2394816399        0.1829497004
 H         -4.4009777981       -0.0910772984        0.4426447092
 H         -3.4830786324       -2.0809288530       -0.7000028278
 H         -1.0642703641       -2.2729002642       -1.0802685935
 H         -0.4698859533        1.5068529373        0.8141429989
 H         -2.8711890853        1.6939253974        1.1939907960
 H          1.0228304296       -0.6728543795       -1.5183277280
 H          1.1966428261       -1.5408984033       -0.0005504902
 H          1.6850976517        0.6071234809        1.1727877445
 H          1.5368146376        1.4727933032       -0.3675762409
 H          3.5553561383       -0.7444319982        0.2244117310
 H          3.4062382610        0.1356126312       -1.3128132893
 H          4.0255511491        1.3736637088        1.1310104213
  22
        -29.43415878
 C         -3.2872715218       -0.1441580816        0.2756482222
 C         -2.7496240812       -0.8730218227       -0.7720831415
 C         -1.3789209803       -0.9551252077       -0.9247910450
 C         -0.5163224980       -0.3159401174       -0.0383028523
 C         -1.0667909535        0.4094712797        1.0086099978
 C         -2.4410970189        0.4948753024        1.1628272490
 C          0.9689708432       -0.4598879229       -0.2587606630
 C          1.8514243156        0.4657495266        0.5764667478
 C          3.3366255623        0.3056904164        0.2352518873
 O          3.6875836151        0.8384670662       -1.0187111165
 H         -4.3580583075       -0.0752870624        0.3976787493
 H         -3.4001014296       -1.3765294643       -1.4724388965
 H         -0.9658989883       -1.5251231755       -1.7459549999
 H         -0.4301788511        0.9177182218        1.7155968909
 H         -2.8502361037        1.0662054831        1.9835076096
 H          1.1619035624       -0.2866724074       -1.3228846484
 H          1.2470009990       -1.4989752907       -0.0481557092
 H          1.7261049447        0.2391582481        1.6361553308
 H          1.5662165117        1.5054605497        0.4043567782
 H          3.9423457086        0.8588793819        0.9569314030
 H          3.6166908664       -0.7573795676        0.2927398308
 H          3.1643557142        0.4017239317       -1.6997485521
  22
        -29.43388222
 C         -2.6049245008        0.5330397595       -0.2214212326
 C         -1.9996836134       -0.2960715807       -1.1487341485
 C         -0.7925332501       -0.9041414351       -0.8521379026
 C         -0.1725867146       -0.6918586828        0.3710752180
 C         -0.7923562239        0.1372307948        1.2973933281
 C         -1.9976149230        0.7469141188        1.0043452915
 C          1.1503458563       -1.3288159269        0.6892260752
 C          2.2994281510       -0.3135058120        0.6513235229
 C          2.4404672017        0.3696826238       -0.7066870850
 O          1.4802851311        1.3993878904       -0.8007746570
 H         -3.5465210820        1.0099837422       -0.4520836669
 H         -2.4688011726       -0.4699442462       -2.1069558658
 H         -0.3269499687       -1.5522990824       -1.5824089897
 H         -0.3239213279        0.3065640622        2.2565569339
 H         -2.4663931543        1.3917957228        1.7338240672
 H          1.3572254580       -2.1282522507       -0.0260898312
 H          1.1134355277       -1.7695770175        1.6887137426
 H          3.2345904115       -0.8229961451        0.8912910544
 H          2.1258937359        0.4659573588        1.3937556218
 H          3.4527458267        0.7938061240       -0.7999605712
 H          2.3033665106       -0.3656801015       -1.5118650899
 H          1.4754674560        1.7517836727       -1.6957219150
  22
        -29.43304346
 C         -2.9625032003        0.2450482783       -0.0848939955
 C         -2.6640611419       -1.1032282542        0.0156947860
 C         -1.3467364942       -1.5219340884        0.0203233178
 C         -0.3012374995       -0.6080330952       -0.0712956679
 C         -0.6129955401        0.7422157703       -0.1685421862
 C         -1.9324998060        1.1632423856       -0.1771251737
 C          1.1158255534       -1.1279307672       -0.0378132492
 C          2.1635047913       -0.2761608445       -0.7718438578
 C          3.0202977339        0.5788700962        0.1685671967
 O          2.3004868121        1.5527468773        0.8824451478
 H         -3.9904992162        0.5759294099       -0.0922709098
 H         -3.4593245291       -1.8310097829        0.0870354567
 H         -1.1230157795       -2.5772707693        0.0961738771
 H          0.1680530551        1.4836696262       -0.2399675813
 H         -2.1532277431        2.2178804225       -0.2555127620
 H          1.1089652537       -2.1318580136       -0.4682830669
 H          1.4167143442       -1.2475552083        1.0102595092
 H          1.6747263108        0.3670256717       -1.5043089387
 H          2.8465861701       -0.9318557268       -1.3143795076
 H          3.5588792874       -0.0812596968        0.8663724221
 H          3.7597788571        1.1347718451       -0.4132900533
 H          1.6266163997        1.1095318817        1.4113536917
  22
        -29.43277118
 C         -3.2747135016       -0.3211685101       -0.0089899704
 C         -2.4190929843       -0.8830388552       -0.9381732459
 C         -1.0463247289       -0.7625096009       -0.7923781426
 C         -0.5056442805       -0.0752748260        0.2852032238
 C         -1.3786583521        0.4854487847        1.2142024532
 C         -2.7475489737        0.3655922508        1.0723104897
 C          0.9739904400        0.0874065810        0.5105974976
 C          1.8758014634       -0.4056773872       -0.6169233963
 C          3.3406529256       -0.0997062334       -0.3159260454
 O          3.5180770197        1.3010672703       -0.2876903937
 H         -4.3443769453       -0.4160257001       -0.1250524825
 H         -2.8199869203       -1.4207930904       -1.7855318427
 H         -0.4021115423       -1.2117739669       -1.5319402533
 H         -0.9725525953        1.0240216881        2.0593039031
 H         -3.4060463284        0.8094337342        1.8050960246
 H          1.2406501470       -0.4376009237        1.4342759771
 H          1.1877378718        1.1472132939        0.6710725272
 H          1.6083858561        0.0984502165       -1.5464947595
 H          1.7710033198       -1.4836004048       -0.7516862806
 H          3.6212260009       -0.5403493895        0.6526094034
 H          3.9761795230       -0.5481324490       -1.0939251817
 H          4.4415994763        1.4993832817       -0.1059231164
  22
        -29.43275805
 C         -3.2734061758       -0.4130941540        0.0445135093
 C         -2.4152210588       -0.8956996936       -0.9258969951
 C         -1.0590185564       -0.6171051701       -0.8664291077
 C         -0.5376862115        0.1500255330        0.1657943216
 C         -1.4131940173        0.6297862262        1.1369773453
 C         -2.7654526341        0.3532783609        1.0805893764
 C          0.9230901963        0.4898689087        0.2958642539
 C          1.8172803228        0.0325572796       -0.8524935372
 C          3.2667430849        0.4465314629       -0.6130877304
 O          3.7524622247       -0.2336442881        0.5252547838
 H         -4.3301302872       -0.6310396942       -0.0044107215
 H         -2.8011038524       -1.4947514281       -1.7383571103
 H         -0.4126470019       -1.0070657262       -1.6369997341
 H         -1.0220938468        1.2283994345        1.9481188944
 H         -3.4259906337        0.7362524305        1.8451897667
 H          1.3053634423        0.0437322584        1.2181931031
 H          1.0140558527        1.5754674601        0.4046148834
 H          1.4828561673        0.4702742521       -1.7948243151
 H          1.7881857136       -1.0546185824       -0.9329620197
 H          3.8715861815        0.1913612493       -1.4959087531
 H          3.3232142383        1.5350179934       -0.4614007081
 H          4.6688153430        0.0166992377        0.6764649743
  22
        -29.43273111
 C         -3.3109003284       -0.4617752125        0.0208030391
 C         -2.4595175679       -0.3393977879       -1.0620655184
 C         -1.1166680806       -0.0583094419       -0.8709909768
 C         -0.6014651367        0.1014269295        0.4080145747
 C         -1.4684719193       -0.0247720231        1.4894972405
 C         -2.8093823166       -0.3018607626        1.3015598900
 C          0.8450272109        0.4292216452        0.6767549349
 C          1.8045335340        0.1230363149       -0.4688082235
 C          3.2558001672        0.3325768461       -0.0479370333
 O          4.0811643876        0.0844941600       -1.1658236756
 H         -4.3576107506       -0.6807177319       -0.1305317672
 H         -2.8408206153       -0.4628030280       -2.0654672909
 H         -0.4735006786        0.0338824607       -1.7318631856
 H         -1.0831595598        0.0971768711        2.4925472005
 H         -3.4643658657       -0.3954916152        2.1557374827
 H          1.1640862364       -0.1254711170        1.5641999347
 H          0.9157658523        1.4938407449        0.9256811533
 H          1.6101011317        0.7740993504       -1.3215799725
 H          1.6853475871       -0.9109326339       -0.7959384286
 H          3.3936346715        1.3646969208        0.3088849650
 H          3.5092534251       -0.3509098964        0.7762396024
 H          5.0021111450        0.2029952193       -0.9132712548
  22
        -29.43131077
 C         -2.9210062184        0.2134575143       -0.1769006014
 C         -1.8531693695        0.5023183392       -1.0072693536
 C         -0.5562246437        0.2241486310       -0.6085906367
 C         -0.3072485506       -0.3443860387        0.6336958092
 C         -1.3888714079       -0.6306474357        1.4607750880
 C         -2.6840728784       -0.3576294901        1.0617773497
 C          1.0812883886       -0.6833202681        1.1143883770
 C          2.2092031620        0.2122275926        0.5899111148
 C          2.7241208738       -0.1562061867       -0.8157478056
 O          2.4113848227        0.7995979488       -1.8048591502
 H         -3.9314060937        0.4312292434       -0.4909928770
 H         -2.0274628353        0.9470319671       -1.9765204365
 H          0.2557153787        0.4566351803       -1.2778737166
 H         -1.2123777164       -1.0742347935        2.4314242165
 H         -3.5095446605       -0.5878321748        1.7201588584
 H          1.3011954660       -1.7229153426        0.8497156458
 H          1.0803438689       -0.6299630193        2.2063865626
 H          3.0421559484        0.1499733436        1.2933413757
 H          1.8639237709        1.2490121098        0.5810139653
 H          3.8120423556       -0.3094670566       -0.7865196487
 H          2.2636751334       -1.0837534150       -1.1626453765
 H          2.8278998992        1.6371087375       -1.5743930636
  22
        -29.43087348
 C         -2.9104802903        0.2444231289       -0.2397820058
 C         -2.4767853037       -0.9762351213       -0.7274316859
 C         -1.1823985410       -1.3996178976       -0.4830045719
 C         -0.3048454125       -0.6122039049        0.2516175932
 C         -0.7480113547        0.6122985560        0.7331941352
 C         -2.0414723479        1.0380496485        0.4895056672
 C          1.1090614094       -1.0664599602        0.4842026795
 C          2.0580935582       -0.5530795966       -0.6187552787
 C          2.9872166403        0.5586106447       -0.1397333469
 O          2.2271408257        1.6881202725        0.2304083185
 H         -3.9212871864        0.5759255929       -0.4289189643
 H         -3.1485549847       -1.6004712558       -1.2993834544
 H         -0.8488428256       -2.3543408651       -0.8661135183
 H         -0.0660098196        1.2384577409        1.2874936124
 H         -2.3739667210        1.9931580082        0.8702735089
 H          1.1349258562       -2.1575191499        0.5048854425
 H          1.4538296829       -0.7013741505        1.4523045694
 H          1.4693160039       -0.1725197566       -1.4545249044
 H          2.6844548309       -1.3673403495       -0.9864913953
 H          3.5799972301        0.2011465408        0.7166533530
 H          3.6835235596        0.8175408037       -0.9516936080
 H          2.8226497139        2.4015891493        0.4794552051
