  22
        -29.43850685
 C         -2.6298922667        0.4862996013       -0.2739143669
 C         -2.0713344527       -0.4911054240       -1.0810566777
 C         -0.8604273722       -1.0650474566       -0.7401227522
 C         -0.1860124853       -0.6697056913        0.4106024423
 C         -0.7590181119        0.3078879386        1.2167937280
 C         -1.9723822691        0.8824741088        0.8776149754
 C          1.1450258960       -1.2763108063        0.7557375846
 C          2.2720784815       -0.7700627531       -0.1562766761
 C          2.5043253761        0.7404308390       -0.0457499360
 O          1.5962699478        1.5072599908       -0.7971935366
 H         -3.5762364028        0.9333180738       -0.5391348726
 H         -2.5834562857       -0.8091151123       -1.9772097300
 H         -0.4318738485       -1.8315817703       -1.3697758154
 H         -0.2525881945        0.6197324315        2.1198183489
 H         -2.4047816559        1.6392734561        1.5154985905
 H          1.0832542913       -2.3629234136        0.6562554508
 H          1.3973874898       -1.0462691435        1.7933599855
 H          2.0422720926       -1.0056618774       -1.1970824778
 H          3.1960241756       -1.2847929835        0.1133711272
 H          2.4810544524        1.0424352740        1.0124724104
 H          3.4886308989        0.9917420174       -0.4495926949
 H          0.7001275121        1.2950383659       -0.5067545053
