! r2scan-3c def2/J RI DEFGRID2 scfconv6 printgap
%output
    printlevel normal
end
* xyz 0 1
C -1.8540006862 -1.123009369 -0.3355738854
C -1.4531908843 0.1166180784 0.441444437
S 0.011609719 0.9750437112 -0.2459077328
C 1.4070360718 0.1204413204 0.576847329
C 1.8751354131 -1.1247013781 -0.1521162896
H -2.7924667427 -1.5098105588 0.0555343798
H -1.9860687719 -0.879470657 -1.3869316557
H -1.0991656088 -1.9002573315 -0.2525354081
H -1.2326864296 -0.1090376125 1.4840888797
H -2.2428646459 0.8663945521 0.3986925634
H 2.1979390827 0.8697116296 0.6004691737
H 1.092899287 -0.0978151719 1.5968272097
H 2.1017181695 -0.8887768659 -1.1889246388
H 2.7741409343 -1.508773862 0.3248004104
H 1.1153664825 -1.9012764609 -0.1318696439
*
