! r2scan-3c def2/J RI DEFGRID2 scfconv6 printgap
%output
    printlevel normal
end
%cpcm
    smd true
    smdsolvent "water"
end
* xyz 0 1
C -3.5746325138 -0.3211824641 -0.2526208374
C -2.1799881956 -0.6011824076 0.2952393099
C -1.1738409815 0.4553212335 -0.157646853
C 0.2181797798 0.2458626763 0.4356205157
C 0.8983324176 -1.0486039744 -0.0277200811
C 2.3855718054 -0.7482123686 0.1221832383
C 2.5004159463 0.6796304999 -0.4082369975
C 1.2031848352 1.369766905 0.0419401488
H -4.2766464389 -1.0816059116 0.0806728143
H -3.9303806984 0.6486292499 0.08843941
H -3.5624010373 -0.3175107013 -1.3402906564
H -2.216040308 -0.618240077 1.3870144372
H -1.8511373163 -1.5857189552 -0.0417224979
H -1.106053262 0.4445307584 -1.2484226679
H -1.5389416231 1.4411697107 0.142236249
H 0.1259440729 0.2177812487 1.5262981973
H 0.5865562098 -1.9134943136 0.5555869546
H 0.6640123188 -1.2342070952 -1.0776188808
H 2.6651112836 -0.7812543182 1.1765304449
H 3.0152600277 -1.4488938407 -0.4243250881
H 3.3880072585 1.1890016139 -0.0358805513
H 2.5553273839 0.6588893387 -1.4974184122
H 1.3869895066 2.0282697199 0.890435437
H 0.7907647068 1.9784630768 -0.7625825837
*
