  22
        -59.10371093
 C          1.5481161573       -1.1648886500        1.3598343906
 C          2.9150209874       -1.3195765114        1.4798523010
 C          3.7693152200       -0.5418014878        0.7122709754
 C          3.2516705888        0.3963126278       -0.1796204358
 C          1.8703672345        0.5473786750       -0.2886828985
 C          1.0069546615       -0.2325417897        0.4807076478
 C         -0.4567369603       -0.0709503294        0.3647353022
 C         -1.0523497993        1.1454360696        0.6741926657
 C         -2.4234891205        1.3094201884        0.5726082056
 C         -3.2298162735        0.2514995089        0.1530907130
 C         -2.6410589069       -0.9724311900       -0.1629625779
 C         -1.2603298091       -1.1313657945       -0.0550675624
 Cl        -0.5522689240       -2.6375965000       -0.4831592973
 Cl        -3.6198691906       -2.2780438960       -0.6865702337
 Cl        -4.9265433312        0.4471418310        0.0230650615
 Cl        -3.1339858104        2.8206984343        0.9649874628
 Cl         1.2359001654        1.6826345358       -1.4148491535
 Cl         4.3033920345        1.3559454189       -1.1379435154
 Cl         5.4689624867       -0.7343119521        0.8571266075
 H          0.8842651932       -1.7659213624        1.9604064994
 H          3.3286207370       -2.0419417365        2.1645960388
 H         -0.4418205728        1.9703468093        1.0041953259
