  5
  -20.4113956500000        1.00000000000000      !md1
 C         -0.8675167454        0.0000224262       -0.0000379420
 F         -1.3201376010        1.1886090756       -0.3483747703
 F         -1.3202199695       -0.8959903262       -0.8550895214
 F         -1.3203981898       -0.2925675259        1.2033820987
 Br         1.0721336337       -0.0000155502        0.0000252460
