  24
        -28.54691645
 C          3.5317532427       -0.4527810385       -0.1546576097
 C          2.0965760316       -0.2032520460        0.3015366632
 C          1.9969468302        1.1267878524        1.0425232525
 C          1.1451726776       -0.2281339249       -0.9073280944
 C         -0.2931767099       -0.1372473416       -0.4875859565
 C         -1.0033398377        1.0503508532       -0.6057069095
 C         -2.3200554252        1.1325406154       -0.1874387209
 C         -2.9461235132        0.0251859505        0.3574288654
 C         -2.2487005170       -1.1649959481        0.4780309552
 C         -0.9335527389       -1.2437227006        0.0581224146
 H          3.6170089359       -1.4142271681       -0.6565617889
 H          4.2080243532       -0.4504018648        0.6973017026
 H          3.8502535185        0.3245272772       -0.8464256793
 H          1.8010811627       -1.0053525169        0.9871232673
 H          2.2870591168        1.9474641602        0.3892508820
 H          0.9789533404        1.3001791927        1.3838511211
 H          2.6554430764        1.1297521224        1.9083851055
 H          1.3032101327       -1.1598113035       -1.4564163554
 H          1.3931788832        0.6031302442       -1.5705980597
 H         -0.5210596596        1.9193590563       -1.0309411536
 H         -2.8586887062        2.0640286050       -0.2869315514
 H         -3.9736643020        0.0880007421        0.6845351791
 H         -2.7325692769       -2.0345895509        0.8991510623
 H         -0.3952540712       -2.1767671178        0.1504416702
