  21
  -32.5012978500000       6.530426159593146E-002 !mtd10
 C         -3.6526263320       -0.3140451647       -0.9054817262
 C         -2.9970909991       -0.4643260570        0.4600982360
 O         -1.5880990581       -0.6549085481        0.3453577408
 C         -0.8383643891        0.4468969464        0.1997081749
 O         -1.2921314204        1.5659447250        0.1838270515
 C          0.6067265152        0.1353687923        0.0742250547
 C          1.4998683717        1.1964135058       -0.0554127943
 C          2.8543441500        0.9516826736       -0.1753313242
 C          3.3246730587       -0.3520596149       -0.1673505801
 C          2.4392064545       -1.4108636762       -0.0394449813
 C          1.0827219576       -1.1729744422        0.0813100465
 H         -4.7293502066       -0.2346793573       -0.7859789891
 H         -3.2850353923        0.5843324883       -1.3952305648
 H         -3.4254265618       -1.1753670308       -1.5293411921
 H         -3.3623464198       -1.3543706867        0.9771512618
 H         -3.1862557859        0.4260135089        1.0691435168
 H          1.1090548090        2.2027622096       -0.0588212255
 H          3.5454205424        1.7754239837       -0.2750695470
 H          4.3835321398       -0.5440928309       -0.2611025357
 H          2.8096611552       -2.4254211934       -0.0340257552
 H          0.3871392346       -1.9913059112        0.1812838039
  21
  -32.5012977900000       6.530011544973885E-002 !mtd4
 C         -3.6190107498        0.5901672665        0.9048235912
 C         -2.9572062210        0.6703922200       -0.4636539882
 O         -1.5379568731        0.7613957778       -0.3531326537
 C         -0.8685025616       -0.3890145270       -0.1928689701
 O         -1.4009322757       -1.4724985918       -0.1610675808
 C          0.5953555324       -0.1797427575       -0.0730221928
 C          1.1633804021        1.0911331859       -0.0971034730
 C          2.5336104934        1.2331891309        0.0192256634
 C          3.3415968737        0.1156272322        0.1594912540
 C          2.7795492185       -1.1510711646        0.1843588388
 C          1.4108396287       -1.3000774163        0.0690312056
 H         -4.6989224011        0.5855349634        0.7876692878
 H         -3.3151845327       -0.3236792530        1.4094459427
 H         -3.3298310241        1.4435336918        1.5138322206
 H         -3.2589179768        1.5755733865       -0.9952172201
 H         -3.2108206958       -0.2141460172       -1.0575463785
 H          0.5276986769        1.9556736604       -0.2065397359
 H          2.9754266172        2.2186165190        0.0006993685
 H          4.4116370091        0.2328102777        0.2497312361
 H          3.4103585302       -2.0206600004        0.2937575797
 H          0.9492522071       -2.2758649398        0.0856231853
  21
  -32.5012976400000       6.528975123514832E-002 !mtd11
 C         -3.6501582470       -0.3106524280        0.9201583544
 C         -2.9988909928       -0.4651163667       -0.4469517328
 O         -1.5895587637       -0.6558427984       -0.3367329302
 C         -0.8392788708        0.4460298734       -0.1942117488
 O         -1.2932454645        1.5649393546       -0.1756706337
 C          0.6064750504        0.1348762430       -0.0758661104
 C          1.4994858582        1.1959903859        0.0542325088
 C          2.8547127832        0.9517708894        0.1663634477
 C          3.3259540861       -0.3515428420        0.1500146857
 C          2.4406284011       -1.4104320569        0.0217521772
 C          1.0833706267       -1.1730582086       -0.0911461075
 H         -4.7271413205       -0.2304708973        0.8034937598
 H         -3.4220516879       -1.1705548439        1.5456068415
 H         -3.2801909438        0.5886416685        1.4063914592
 H         -3.1898314344        0.4235045326       -1.0579119533
 H         -3.3661569575       -1.3564571683       -0.9602792464
 H          1.1079584490        2.2020046695        0.0640806083
 H          3.5456429629        1.7755601124        0.2665485266
 H          4.3854289830       -0.5431733440        0.2374826774
 H          2.8118409589       -2.4246457916        0.0097540856
 H          0.3879074208       -1.9914471736       -0.1914877338
  21
  -32.5012976400000       6.528975123514832E-002 !mtd7
 C         -3.6313232114        0.2068098675       -1.0100507317
 C         -2.9521438359        0.8060353395        0.2133782938
 O         -1.5347451853        0.8437165169        0.0576057486
 C         -0.8644320771       -0.2817857726        0.3427653450
 O         -1.3941127803       -1.2922280676        0.7387776778
 C          0.5967498002       -0.1393242946        0.1290550116
 C          1.1608379604        1.0406614396       -0.3482577128
 C          2.5284816332        1.1224457806       -0.5328174506
 C          3.3377910950        0.0346593377       -0.2443843821
 C          2.7796820023       -1.1417242895        0.2306833170
 C          1.4135703461       -1.2302878498        0.4170437526
 H         -4.7096182971        0.2503907214       -0.8863824497
 H         -3.3521278126        0.7591951123       -1.9042481214
 H         -3.3315777475       -0.8316151492       -1.1277750633
 H         -3.1957266828        0.2190763802        1.1053163129
 H         -3.2492280983        1.8469045153        0.3592727199
 H          0.5241061668        1.8825132832       -0.5704016848
 H          2.9672019863        2.0372811554       -0.9032058274
 H          4.4057750675        0.1044467816       -0.3906118340
 H          3.4115503840       -1.9882306091        0.4548379908
 H          0.9550287344       -2.1354551790        0.7856963440
  21
  -32.5012976400000       6.528975123514832E-002 !md5
 C         -3.6512785629       -0.3081830024       -0.9068534102
 C         -2.9971707497       -0.4665637048        0.4584721480
 O         -1.5880513003       -0.6566188573        0.3443240899
 C         -0.8385846133        0.4456707894        0.2010164616
 O         -1.2927096582        1.5646042944        0.1870639691
 C          0.6065967739        0.1348189505        0.0750046763
 C          1.4988637380        1.1961450473       -0.0583026581
 C          2.8533486770        0.9520550270       -0.1792300383
 C          3.3245782961       -0.3513468549       -0.1684015554
 C          2.4400233000       -1.4104183000       -0.0365474122
 C          1.0835125579       -1.1731640515        0.0850608761
 H         -3.2851204269        0.5944080484       -1.3898395861
 H         -3.4211127348       -1.1646093916       -1.5363079010
 H         -4.7283604098       -0.2322840634       -0.7883049767
 H         -3.3629775093       -1.3596492609        0.9698430256
 H         -3.1870663933        0.4201484762        1.0725584632
 H          1.1072982668        2.2021898276       -0.0640512913
 H          3.5437261281        1.7759915391       -0.2821925958
 H          4.3834552355       -0.5428765303       -0.2629555609
 H          2.8112069476       -2.4246894981       -0.0287482037
 H          0.3886334957       -1.9917149312        0.1880702842
  21
  -32.5012976200000       6.528836946458760E-002 !mtd11
 C         -3.6330978632        0.2158055748       -1.0077866353
 C         -2.9519615743        0.8044312531        0.2197015330
 O         -1.5347489764        0.8428251342        0.0626672909
 C         -0.8644608439       -0.2848977060        0.3388688635
 O         -1.3941551628       -1.2984752061        0.7267396014
 C          0.5968298830       -0.1406662487        0.1269873569
 C          1.1606414258        1.0413949297       -0.3454414506
 C          2.5285226693        1.1249941355       -0.5275271850
 C          3.3383742647        0.0370070893       -0.2413649604
 C          2.7805269467       -1.1415087559        0.2286552551
 C          1.4141520190       -1.2319576296        0.4123154321
 H         -3.3336785101       -0.8216109594       -1.1349342826
 H         -4.7111184955        0.2583716840       -0.8819248724
 H         -3.3553532671        0.7757924237       -1.8976953143
 H         -3.1947209991        0.2100876335        1.1069853850
 H         -3.2484817704        1.8441527847        0.3747052679
 H          0.5236347156        1.8834635874       -0.5659057295
 H          2.9669962694        2.0414512723       -0.8942008842
 H          4.4065497403        0.1083736786       -0.3853688594
 H          3.4127079274       -1.9882263860        0.4511174695
 H          0.9558485180       -2.1387974557        0.7771338818
  21
  -32.5012975900000       6.528629686284125E-002 !mtd12
 C         -3.6456629080       -0.3204836236        0.9245223125
 C         -2.9998153512       -0.4611771083       -0.4467104029
 O         -1.5901331316       -0.6526586281       -0.3424962494
 C         -0.8393580084        0.4482580114       -0.1952901054
 O         -1.2926951756        1.5673652943       -0.1723968011
 C          0.6062082919        0.1358526015       -0.0782043952
 C          1.4999008665        1.1961052558        0.0543319490
 C          2.8546899025        0.9506058770        0.1686902115
 C          3.3248270109       -0.3531437185        0.1519968519
 C          2.4388742451       -1.4111214059        0.0208040913
 C          1.0820252022       -1.1724592371       -0.0943283970
 H         -3.2728356038        0.5733238342        1.4187421584
 H         -4.7230447048       -0.2380863605        0.8133096502
 H         -3.4157018050       -1.1870880523        1.5400425539
 H         -3.1929998101        0.4335200536       -1.0480600520
 H         -3.3688338453       -1.3474823037       -0.9675237159
 H          1.1090607326        2.2023810823        0.0650471181
 H          3.5461482431        1.7736598066        0.2712135439
 H          4.3839568808       -0.5457637520        0.2414440696
 H          2.8092317947       -2.4256681432        0.0082877095
 H          0.3860694283       -1.9901945836       -0.1967836678
  21
  -32.5012974300000       6.527524409900347E-002 !mtd12
 C         -3.6493064586       -0.3064026082        0.9227942391
 C         -2.9990394978       -0.4670786965       -0.4441142256
 O         -1.5896303555       -0.6572440248       -0.3339729695
 C         -0.8393404139        0.4452425135       -0.1965021352
 O         -1.2933009105        1.5642727699       -0.1828646557
 C          0.6064129966        0.1345382332       -0.0770364368
 C          1.4987496717        1.1958395642        0.0560960519
 C          2.8539243640        0.9520269664        0.1698070843
 C          3.3257853546       -0.3510632440        0.1518109167
 C          2.4411752763       -1.4101201240        0.0201328434
 C          1.0839674054       -1.1731416867       -0.0941856875
 H         -3.4203010459       -1.1631911669        1.5521637710
 H         -3.2793676958        0.5952924741        1.4044907274
 H         -4.7264190765       -0.2272349917        0.8067386657
 H         -3.1904785323        0.4187667146       -1.0589770281
 H         -3.3665765650       -1.3608370266       -0.9530737272
 H          1.1067483761        2.2016704961        0.0672170747
 H          3.5443476463        1.7759452380        0.2725274207
 H          4.3851833958       -0.5423629665        0.2405030185
 H          2.8128738134       -2.4241446199        0.0065368953
 H          0.3890551703       -1.9916588568       -0.1971770525
  21
  -32.5012972900000       6.526557446525529E-002 !mtd9
 C         -3.6223345884        0.4818059228        0.9466154545
 C         -2.9550186806        0.7200768195       -0.4006117924
 O         -1.5362000370        0.7977989659       -0.2752741754
 C         -0.8679420437       -0.3637536311       -0.2364036811
 O         -1.4012079565       -1.4439035993       -0.3221646063
 C          0.5955838910       -0.1700428344       -0.0894082234
 C          1.1660573370        1.0961053744        0.0096073246
 C          2.5359159071        1.2233351256        0.1457187578
 C          3.3410706516        0.0956285029        0.1841139931
 C          2.7765863274       -1.1664394777        0.0862929841
 C          1.4082735625       -1.3006671904       -0.0498990964
 H         -3.3350554612        1.2581333103        1.6519318764
 H         -4.7017470776        0.4920813683        0.8254394490
 H         -3.3211607861       -0.4849376610        1.3424923136
 H         -3.2548829171        1.6808118812       -0.8248668265
 H         -3.2061259462       -0.0895994980       -1.0940235656
 H          0.5325900694        1.9686121069       -0.0212742565
 H          2.9796969605        2.2050685125        0.2221977050
 H          4.4108187487        0.2012667158        0.2905534022
 H          3.4051561267       -2.0439709743        0.1165869824
 H          0.9448197851       -2.2725668650       -0.1280497699
  21
  -32.5012971900000       6.525866846164405E-002 !mtd14
 C         -3.6509724179       -0.3036004594       -0.9082047747
 C         -2.9970028522       -0.4691349941        0.4563594500
 O         -1.5877860288       -0.6579941356        0.3415480228
 C         -0.8387023561        0.4450308696        0.2023644325
 O         -1.2930729728        1.5639047947        0.1925384897
 C          0.6066030762        0.1347946096        0.0755788417
 C          1.4982507315        1.1960632951       -0.0620011342
 C          2.8527051608        0.9520751678       -0.1838111408
 C          3.3244786973       -0.3510925327       -0.1691982827
 C          2.4405445934       -1.4100940167       -0.0329150626
 C          1.0840405686       -1.1729655894        0.0892816242
 H         -3.4213149726       -1.1569296675       -1.5420574251
 H         -4.7280013455       -0.2276221442       -0.7892889095
 H         -3.2843049525        0.6012214049       -1.3865949361
 H         -3.3623868797       -1.3652175723        0.9627433238
 H         -3.1874329694        0.4140522650        1.0753337398
 H          1.1064265651        2.2019810936       -0.0704900811
 H          3.5425685714        1.7759240274       -0.2906098419
 H          4.3833109614       -0.5425336298       -0.2646059856
 H          2.8121256415       -2.4241952315       -0.0221008865
 H          0.3895835406       -1.9914092257        0.1958591335
  21
  -32.5012970900000       6.525176318829320E-002 !mtd2
 C         -3.6168260035        0.6453409105        0.8800459966
 C         -2.9585910043        0.6425904865       -0.4924457002
 O         -1.5391027070        0.7391664378       -0.3905616970
 C         -0.8687170359       -0.4008113311       -0.1705592065
 O         -1.4003819420       -1.4813040271       -0.0801044298
 C          0.5952911176       -0.1844734052       -0.0649122191
 C          1.1614978968        1.0845579670       -0.1509855166
 C          2.5317436281        1.2338555251       -0.0445803591
 C          3.3416091221        0.1252864281        0.1470185844
 C          2.7814097718       -1.1395086239        0.2333609430
 C          1.4126521607       -1.2956773721        0.1285327843
 H         -3.3118187289       -0.2365625247        1.4381202291
 H         -3.3256333966        1.5339193778        1.4354419724
 H         -4.6971134428        0.6342512433        0.7662077538
 H         -3.2610750791        1.5145403037       -1.0765686089
 H         -3.2140665477       -0.2758332343       -1.0315104178
 H          0.5243250865        1.9419443399       -0.3005200542
 H          2.9721106446        2.2178189726       -0.1114478007
 H          4.4116694817        0.2480690144        0.2293759598
 H          3.4137158571       -2.0020417845        0.3826634227
 H          0.9525890565       -2.2702158787        0.1925869027
  21
  -32.5012970600000       6.524969174862569E-002 !mtd8
 C         -3.6345702325        0.2032035032       -0.9993551327
 C         -2.9508666486        0.8096557179        0.2179620984
 O         -1.5338503286        0.8462533735        0.0587269539
 C         -0.8647946979       -0.2819795229        0.3361135689
 O         -1.3958988621       -1.2945790230        0.7248940152
 C          0.5967768015       -0.1396163107        0.1250653704
 C          1.1631346528        1.0434426689       -0.3418646081
 C          2.5313956026        1.1255652739       -0.5216278393
 C          3.3390439767        0.0350632713       -0.2388267756
 C          2.7786250168       -1.1445420015        0.2253544814
 C          1.4119127445       -1.2334800422        0.4067985366
 H         -3.3544688616        0.7469265026       -1.8986151995
 H         -3.3396136662       -0.8375773880       -1.1088128952
 H         -4.7124378086        0.2526872309       -0.8740946820
 H         -3.1922853210        0.2285971279        1.1143443430
 H         -3.2468525596        1.8515819536        0.3581848082
 H          0.5277344093        1.8875311004       -0.5593556249
 H          2.9719738015        2.0429162849       -0.8834801078
 H          4.4075425435        0.1052971249       -0.3807964848
 H          3.4091352526       -1.9932606753        0.4449506212
 H          0.9516011900       -2.1410339537        0.7673284077
  21
  -32.5006039800000       3.133725487323184E-002 !gc
 C         -3.8231689349       -1.3210745582       -0.1854403007
 C         -3.0237623547       -0.0452887206       -0.0001098361
 O         -1.6354865978       -0.3717538996       -0.0506029156
 C         -0.7838892621        0.6510757279        0.0949748990
 O         -1.1459060871        1.7918124521        0.2599052064
 C          0.6358176181        0.2266992604        0.0313808687
 C          1.6214684408        1.2016635475        0.1660141405
 C          2.9563609635        0.8492457048        0.1132030865
 C          3.3145984583       -0.4765543082       -0.0739021556
 C          2.3367273949       -1.4498028489       -0.2082894309
 C          0.9991720416       -1.1041160418       -0.1565305223
 H         -3.5893943013       -1.7734574493       -1.1455100282
 H         -3.5827472686       -2.0311619146        0.6013326136
 H         -4.8847953284       -1.0950376360       -0.1480490221
 H         -3.2409167768        0.4263941778        0.9652087183
 H         -3.2444058604        0.6834309399       -0.7886120764
 H          1.3166331356        2.2270876524        0.3108910053
 H          3.7194474861        1.6061153202        0.2176788571
 H          4.3581218441       -0.7526250654       -0.1151156303
 H          2.6201070169       -2.4818416561       -0.3539013946
 H          0.2318444542       -1.8551473324       -0.2601789889
  21
  -32.5006039100000       3.133493369474381E-002 !mtd12
 C         -3.8226090337       -1.3223755058       -0.1805019651
 C         -3.0237655916       -0.0449185178       -0.0044556734
 O         -1.6353340553       -0.3713322495       -0.0522463094
 C         -0.7839583134        0.6514835328        0.0947288345
 O         -1.1460124118        1.7922201563        0.2597612808
 C          0.6357752177        0.2268677227        0.0320449399
 C          1.6216200348        1.2016391938        0.1666906510
 C          2.9564427808        0.8490348309        0.1133088035
 C          3.3144560184       -0.4767944874       -0.0741171647
 C          2.3363462524       -1.4498726600       -0.2082488384
 C          0.9988638809       -1.1039875145       -0.1561270340
 H         -4.8843448534       -1.0960004504       -0.1493047766
 H         -3.5851502758       -1.7838689838       -1.1353466028
 H         -3.5853645225       -2.0250095329        0.6138560896
 H         -3.2412804984        0.4340968260        0.9571053219
 H         -3.2443424230        0.6776806484       -0.7985883426
 H          1.3169256733        2.2271480540        0.3112840585
 H          3.7197114451        1.6057704805        0.2176270419
 H          4.3579142357       -0.7530882969       -0.1155848983
 H          2.6194985163       -2.4819938221       -0.3536185754
 H          0.2314181460       -1.8549531512       -0.2594069150
  21
  -32.5006038900000       3.133427053240263E-002 !md2
 C         -3.7582457474        0.9452003863       -1.1729074598
 C         -3.0172313808        0.1827656075       -0.0909524269
 O         -1.6162400007        0.3011108961       -0.3351807504
 C         -0.8119601101       -0.3351294015        0.5255426799
 O         -1.2246742794       -0.9773683896        1.4618931261
 C          0.6247215872       -0.1620524354        0.2003338738
 C          1.0470402701        0.5880394801       -0.8939330054
 C          2.3980844145        0.7196362011       -1.1557423076
 C          3.3310281754        0.1078168189       -0.3330635624
 C          2.9140481468       -0.6395971189        0.7571555514
 C          1.5653439906       -0.7752219301        1.0246103731
 H         -3.5215168485        0.5333998129       -2.1503374371
 H         -4.8285327870        0.8692681566       -1.0049429925
 H         -3.4691903336        1.9926897832       -1.1576101973
 H         -3.2878367194       -0.8793916913       -0.0926121244
 H         -3.2376070899        0.5852745911        0.9044937063
 H          0.3144062345        1.0607699064       -1.5290204600
 H          2.7272134758        1.3012566439       -2.0042826465
 H          4.3854255392        0.2141604238       -0.5426243165
 H          3.6421982032       -1.1154904044        1.3970162986
 H          1.2150679223       -1.3520187673        1.8672720302
  21
  -32.5006038000000       3.133128647578115E-002 !gc
 C         -3.8242774671       -1.3194979797       -0.1886940426
 C         -3.0237631618       -0.0452284035        0.0021591347
 O         -1.6356154119       -0.3723598898       -0.0491148030
 C         -0.7838631213        0.6503070877        0.0955745950
 O         -1.1456753586        1.7912739257        0.2597281767
 C          0.6358693997        0.2262013931        0.0311480487
 C          1.6212376807        1.2015646128        0.1654761665
 C          2.9562408428        0.8497000140        0.1129012310
 C          3.3148969060       -0.4760594562       -0.0738549590
 C          2.3373853693       -1.4496532916       -0.2081855641
 C          0.9996640113       -1.1045119526       -0.1565712199
 H         -3.5859134654       -2.0326694948        0.5959182608
 H         -4.8856424646       -1.0921890065       -0.1520101032
 H         -3.5897307888       -1.7688126894       -1.1500166516
 H         -3.2408204601        0.4225070256        0.9694229084
 H         -3.2435540114        0.6870526442       -0.7832804063
 H          1.3156468123        2.2267803730        0.3102135066
 H          3.7189932120        1.6068945047        0.2173257085
 H          4.3585231344       -0.7518000310       -0.1148848041
 H          2.6213294030       -2.4815661562       -0.3535912433
 H          0.2326576082       -1.8558822115       -0.2601089663
  21
  -32.5006033000000       3.131471355769087E-002 !mtd4
 C         -3.7569630868        0.9261052084       -1.1878516393
 C         -3.0170688528        0.1849411476       -0.0904114037
 O         -1.6160390958        0.2985232380       -0.3361265218
 C         -0.8117909062       -0.3272973405        0.5321546520
 O         -1.2242879310       -0.9571973575        1.4769100901
 C          0.6246404066       -0.1593880147        0.2031042557
 C          1.0460949414        0.5853751542       -0.8951580158
 C          2.3967660334        0.7130156879       -1.1606850234
 C          3.3302663566        0.1020971576       -0.3379928075
 C          2.9141536107       -0.6401759273        0.7560957940
 C          1.5658235106       -0.7713896772        1.0275938691
 H         -4.8274546832        0.8539753683       -1.0194326059
 H         -3.4674166201        1.9735749747       -1.1929765614
 H         -3.5194122325        0.4949817417       -2.1567393654
 H         -3.2878240357       -0.8770017064       -0.0712786460
 H         -3.2381787021        0.6071605670        0.8966809393
 H          0.3129877317        1.0574258156       -1.5302072811
 H          2.7250368435        1.2907844176       -2.0121899120
 H          4.3843117144        0.2052405869       -0.5503861817
 H          3.6427781956       -1.1150439111        1.3960788214
 H          1.2162898832       -1.3437183134        1.8735848932
  21
  -32.5006031200000       3.130874945339001E-002 !mtd7
 C         -3.7571365125        0.9688515867       -1.1563254498
 C         -3.0179187852        0.1661478637       -0.1026397330
 O         -1.6168019995        0.2862879671       -0.3454076610
 C         -0.8121415101       -0.3389068534        0.5229058868
 O         -1.2244329647       -0.9734776942        1.4646628963
 C          0.6246484672       -0.1630859948        0.1995636478
 C          1.0465940482        0.5758519864       -0.9024125387
 C          2.3977107911        0.7096754912       -1.1626419409
 C          3.3311016264        0.1112520502       -0.3306652429
 C          2.9145108244       -0.6248796771        0.7673373865
 C          1.5657146351       -0.7627387322        1.0331909084
 H         -3.4619436196        2.0135828025       -1.1062805446
 H         -3.5251932460        0.5889759915       -2.1477684292
 H         -4.8274270059        0.8934074273       -0.9881635401
 H         -3.2934193643       -0.8940830182       -0.1413623831
 H         -3.2347442695        0.5341918629        0.9067781809
 H          0.3136355808        1.0383528166       -1.5446102045
 H          2.7265753475        1.2826171559       -2.0171583224
 H          4.3854951889        0.2192860741       -0.5390663986
 H          3.6429954043       -1.0899788619        1.4147014899
 H          1.2157143970       -1.3305264489        1.8820305176
  21
  -32.5005205600000       2.868955237139364E-002 !mtd8
 C         -3.7531303963       -1.0670222802       -0.7057260092
 C         -3.0246377085       -0.1940442051        0.3027507639
 O         -1.6217881433       -0.4420809911        0.2165565100
 C         -0.7980930196        0.6133834578        0.1892064206
 O         -1.1714964289        1.7599580903        0.2566092753
 C          0.6250007681        0.2103953338        0.0682373652
 C          1.5974232629        1.2067792465        0.1105503297
 C          2.9343245368        0.8755813936        0.0006744818
 C          3.3078596139       -0.4500789469       -0.1544095352
 C          2.3431543473       -1.4444336260       -0.1993954501
 C          1.0039207470       -1.1201686186       -0.0880365234
 H         -4.8234644763       -0.9003912674       -0.6252604905
 H         -3.4318232761       -0.8247630762       -1.7156750056
 H         -3.5415692448       -2.1160593980       -0.5152463602
 H         -3.3408444946       -0.4339818990        1.3238156127
 H         -3.2058061984        0.8694951612        0.1145342895
 H          1.2813364497        2.2319495928        0.2310261008
 H          3.6870696427        1.6490264405        0.0355773826
 H          4.3528587128       -0.7096256372       -0.2406780606
 H          2.6379971004       -2.4762450922       -0.3219967265
 H          0.2471461951       -1.8879545118       -0.1229388460
