  21
        -32.50129785
 C         -3.6526263320       -0.3140451647       -0.9054817262
 C         -2.9970909991       -0.4643260570        0.4600982360
 O         -1.5880990581       -0.6549085481        0.3453577408
 C         -0.8383643891        0.4468969464        0.1997081749
 O         -1.2921314204        1.5659447250        0.1838270515
 C          0.6067265152        0.1353687923        0.0742250547
 C          1.4998683717        1.1964135058       -0.0554127943
 C          2.8543441500        0.9516826736       -0.1753313242
 C          3.3246730587       -0.3520596149       -0.1673505801
 C          2.4392064545       -1.4108636762       -0.0394449813
 C          1.0827219576       -1.1729744422        0.0813100465
 H         -4.7293502066       -0.2346793573       -0.7859789891
 H         -3.2850353923        0.5843324883       -1.3952305648
 H         -3.4254265618       -1.1753670308       -1.5293411921
 H         -3.3623464198       -1.3543706867        0.9771512618
 H         -3.1862557859        0.4260135089        1.0691435168
 H          1.1090548090        2.2027622096       -0.0588212255
 H          3.5454205424        1.7754239837       -0.2750695470
 H          4.3835321398       -0.5440928309       -0.2611025357
 H          2.8096611552       -2.4254211934       -0.0340257552
 H          0.3871392346       -1.9913059112        0.1812838039
  21
        -32.50060398
 C         -3.8231689349       -1.3210745582       -0.1854403007
 C         -3.0237623547       -0.0452887206       -0.0001098361
 O         -1.6354865978       -0.3717538996       -0.0506029156
 C         -0.7838892621        0.6510757279        0.0949748990
 O         -1.1459060871        1.7918124521        0.2599052064
 C          0.6358176181        0.2266992604        0.0313808687
 C          1.6214684408        1.2016635475        0.1660141405
 C          2.9563609635        0.8492457048        0.1132030865
 C          3.3145984583       -0.4765543082       -0.0739021556
 C          2.3367273949       -1.4498028489       -0.2082894309
 C          0.9991720416       -1.1041160418       -0.1565305223
 H         -3.5893943013       -1.7734574493       -1.1455100282
 H         -3.5827472686       -2.0311619146        0.6013326136
 H         -4.8847953284       -1.0950376360       -0.1480490221
 H         -3.2409167768        0.4263941778        0.9652087183
 H         -3.2444058604        0.6834309399       -0.7886120764
 H          1.3166331356        2.2270876524        0.3108910053
 H          3.7194474861        1.6061153202        0.2176788571
 H          4.3581218441       -0.7526250654       -0.1151156303
 H          2.6201070169       -2.4818416561       -0.3539013946
 H          0.2318444542       -1.8551473324       -0.2601789889
  21
        -32.50052056
 C         -3.7531303963       -1.0670222802       -0.7057260092
 C         -3.0246377085       -0.1940442051        0.3027507639
 O         -1.6217881433       -0.4420809911        0.2165565100
 C         -0.7980930196        0.6133834578        0.1892064206
 O         -1.1714964289        1.7599580903        0.2566092753
 C          0.6250007681        0.2103953338        0.0682373652
 C          1.5974232629        1.2067792465        0.1105503297
 C          2.9343245368        0.8755813936        0.0006744818
 C          3.3078596139       -0.4500789469       -0.1544095352
 C          2.3431543473       -1.4444336260       -0.1993954501
 C          1.0039207470       -1.1201686186       -0.0880365234
 H         -4.8234644763       -0.9003912674       -0.6252604905
 H         -3.4318232761       -0.8247630762       -1.7156750056
 H         -3.5415692448       -2.1160593980       -0.5152463602
 H         -3.3408444946       -0.4339818990        1.3238156127
 H         -3.2058061984        0.8694951612        0.1145342895
 H          1.2813364497        2.2319495928        0.2310261008
 H          3.6870696427        1.6490264405        0.0355773826
 H          4.3528587128       -0.7096256372       -0.2406780606
 H          2.6379971004       -2.4762450922       -0.3219967265
 H          0.2471461951       -1.8879545118       -0.1229388460
