  21
        -32.50129785
 C         -3.6526263320       -0.3140451647       -0.9054817262
 C         -2.9970909991       -0.4643260570        0.4600982360
 O         -1.5880990581       -0.6549085481        0.3453577408
 C         -0.8383643891        0.4468969464        0.1997081749
 O         -1.2921314204        1.5659447250        0.1838270515
 C          0.6067265152        0.1353687923        0.0742250547
 C          1.4998683717        1.1964135058       -0.0554127943
 C          2.8543441500        0.9516826736       -0.1753313242
 C          3.3246730587       -0.3520596149       -0.1673505801
 C          2.4392064545       -1.4108636762       -0.0394449813
 C          1.0827219576       -1.1729744422        0.0813100465
 H         -4.7293502066       -0.2346793573       -0.7859789891
 H         -3.2850353923        0.5843324883       -1.3952305648
 H         -3.4254265618       -1.1753670308       -1.5293411921
 H         -3.3623464198       -1.3543706867        0.9771512618
 H         -3.1862557859        0.4260135089        1.0691435168
 H          1.1090548090        2.2027622096       -0.0588212255
 H          3.5454205424        1.7754239837       -0.2750695470
 H          4.3835321398       -0.5440928309       -0.2611025357
 H          2.8096611552       -2.4254211934       -0.0340257552
 H          0.3871392346       -1.9913059112        0.1812838039
