! r2scan-3c def2/J RI DEFGRID2 scfconv6 printgap
%output
    printlevel normal
end
* xyz 0 1
C 1.7403080412 -1.1911012056 -0.1003745024
C 1.2383142636 0.1286666872 0.4797084202
H 1.057791974 0.0011558626 1.561256953
C -0.0567142763 0.6177379457 -0.1771388332
C -1.2874861233 -0.2592871649 0.1085276826
C -2.4906370045 0.6080894349 0.4784220532
C -1.639929478 -1.1367074679 -1.0919654923
O 2.1917414739 1.1667953736 0.2957166565
H 1.011278435 -1.9762492816 0.0720839833
H 1.9085586829 -1.0851819117 -1.1695418771
H 2.6754811028 -1.4825284067 0.3736977717
H -0.22515377 1.6300150648 0.1953369409
H 0.1146248847 0.6972036029 -1.251638986
H -1.0644800805 -0.9085541088 0.9626313526
H -2.7305721532 1.287025526 -0.3367953441
H -2.2809524663 1.1970540197 1.3681092887
H -3.3611808468 -0.0133406782 0.6756500701
H -1.927516802 -0.5147790016 -1.9368820757
H -0.7963377364 -1.751996541 -1.3908464741
H -2.47419688 -1.7915395582 -0.8502804622
H 3.04715906 0.8787498072 0.6416845962
*
