  19
  -23.0498516900000       0.649722435532151      !hor
 C         -1.8940723386        0.0000615966        0.2839479725
 C         -1.1879755593       -1.2530456960       -0.2255847248
 C          0.2773393596       -1.2528874026        0.1987602701
 C          0.9902858745        0.0000001592       -0.3190291880
 C          0.2772663972        1.2528005609        0.1989327447
 C         -1.1879017245        1.2530479642       -0.2257587106
 O          2.3616338810        0.0000559831        0.0161167238
 H         -1.8898731143        0.0001682470        1.3766287237
 H         -2.9348285483       -0.0000079097       -0.0457761746
 H         -1.6836978690       -2.1450795664        0.1627220617
 H         -1.2474015273       -1.2841962954       -1.3157208224
 H          0.3425984509       -1.2729682796        1.2910860432
 H          0.7852965840       -2.1400997041       -0.1841882887
 H          0.9767301240        0.0000804693       -1.4145580194
 H          0.3421613334        1.2724877166        1.2913157986
 H          0.7854724767        2.1400640853       -0.1835591996
 H         -1.6836479479        2.1451966373        0.1622140301
 H         -1.2471152079        1.2839182703       -1.3159146675
 H          2.4398657332       -0.0001804316        0.9773159189
  19
  -23.0483139500000       0.127653136424636      !md8
 C         -1.7869081404       -0.0000515908        0.1649984730
 C         -0.9367272605       -1.2532388666        0.3521435226
 C          0.2359693634       -1.2593499530       -0.6265410697
 C          1.1029601431        0.0000010722       -0.4873673159
 C          0.2360813860        1.2594668239       -0.6264158406
 C         -0.9369080799        1.2532930957        0.3519294607
 O          1.8505490773       -0.0000777696        0.7081031410
 H         -2.6139697288       -0.0000744835        0.8783086133
 H         -2.2119701205       -0.0002088181       -0.8413529285
 H         -0.5655209674       -1.2946889171        1.3800565105
 H         -1.5463238636       -2.1450085923        0.1923925825
 H          0.8608518084       -2.1381150798       -0.4557719208
 H         -0.1443902090       -1.3058389328       -1.6485334381
 H          1.8632339715        0.0000209473       -1.2773216175
 H          0.8610953402        2.1379613404       -0.4548805381
 H         -0.1437968010        1.3066151676       -1.6485759540
 H         -0.5659606296        1.2951453358        1.3799006694
 H         -1.5466317910        2.1449222705        0.1917459060
 H          1.2307686553       -0.0009326732        1.4462006100
  19
  -23.0479724000000       8.893362151373606E-002 !md5
 C         -1.8856395612        0.0121610810        0.3162906704
 C         -1.2006429286       -1.2452915081       -0.2102854761
 C          0.2724214642       -1.2579855228        0.1860247487
 C          0.9832049020       -0.0083760938       -0.3407551248
 C          0.2922457917        1.2478700299        0.1851189398
 C         -1.1807505527        1.2598749327       -0.2077790311
 O          2.3351125503        0.0417561512        0.0724763075
 H         -1.8546935957        0.0105968186        1.4080557578
 H         -2.9336721490        0.0195397946        0.0099597456
 H         -1.6955708388       -2.1349197108        0.1844595754
 H         -1.2815530400       -1.2724747321       -1.2998053722
 H          0.3642399319       -1.2766170906        1.2744746129
 H          0.7592972843       -2.1546283207       -0.2095244824
 H          0.9361224424       -0.0094332952       -1.4440854848
 H          0.3936001595        1.2631715684        1.2715478016
 H          0.8053094601        2.1254227084       -0.2100305399
 H         -1.6592771524        2.1552675870        0.1929689063
 H         -1.2656399282        1.2932677135       -1.2966456233
 H          2.7681224216       -0.7803788477       -0.1811753918
  19
  -23.0479723700000       8.893079828566433E-002 !md5
 C         -1.8857997638       -0.0121742860        0.3161977922
 C         -1.1806519387       -1.2598188275       -0.2077817542
 C          0.2923079603       -1.2478668165        0.1851667482
 C          0.9832874362        0.0083443085       -0.3407778742
 C          0.2724277280        1.2579435297        0.1858162396
 C         -1.2007774929        1.2453957768       -0.2100767540
 O          2.3351627189       -0.0418315362        0.0725138417
 H         -1.8551129452       -0.0107861897        1.4078867203
 H         -2.9336947038       -0.0196050819        0.0095792429
 H         -1.6592025237       -2.1551542287        0.1930345501
 H         -1.2654945689       -1.2934626851       -1.2965810480
 H          0.3935698187       -1.2631209149        1.2715987767
 H          0.8054343682       -2.1253809453       -0.2099505801
 H          0.9362091355        0.0093270752       -1.4441385116
 H          0.3645287907        1.2769936967        1.2741829889
 H          0.7592026934        2.1543832173       -0.2101321151
 H         -1.6955579129        2.1349173032        0.1851809668
 H         -1.2820756984        1.2729372340       -1.2994925291
 H          2.7682206460        0.7804211106       -0.1807266711
  19
  -23.0466572600000       2.211411078763449E-002 !hor
 C         -1.7712649489        0.0114122451        0.1872791016
 C         -0.9227737798       -1.2430592571        0.3661452129
 C          0.2175764137       -1.2590046659       -0.6478940103
 C          1.0934605042       -0.0088427354       -0.5054522385
 C          0.2436149010        1.2555727273       -0.6420859545
 C         -0.9034988491        1.2531627721        0.3636715320
 O          1.7476680070        0.0412624554        0.7469128984
 H         -2.5838161227        0.0176587920        0.9166304671
 H         -2.2152760058        0.0127373604       -0.8115608737
 H         -0.5049472111       -1.2498662370        1.3751144570
 H         -1.5364298123       -2.1384215039        0.2458455730
 H          0.8311947726       -2.1545734707       -0.5098686569
 H         -0.1876969246       -1.2849181508       -1.6613394732
 H          1.8533865394       -0.0158590828       -1.3083406023
 H          0.8822834477        2.1234905804       -0.4741830689
 H         -0.1480311806        1.3042899916       -1.6599194551
 H         -0.4832459213        1.2613550398        1.3702364630
 H         -1.5045510292        2.1555424125        0.2358758239
 H          2.1994325936       -0.7965604596        0.8920260184
  19
  -23.0466572600000       2.211411078763449E-002 !md7
 C         -1.7713469405       -0.0114043535        0.1872855247
 C         -0.9034674763       -1.2530651890        0.3637506787
 C          0.2435973977       -1.2556165916       -0.6420589638
 C          1.0934546595        0.0087816687       -0.5054315521
 C          0.2175815134        1.2589406024       -0.6478870670
 C         -0.9228768045        1.2430851670        0.3660452751
 O          1.7477976252       -0.0412419435        0.7468912270
 H         -2.5839421714       -0.0175690226        0.9165969512
 H         -2.2152902133       -0.0128275269       -0.8115843491
 H         -0.4831498100       -1.2611165935        1.3702780990
 H         -1.5044687276       -2.1554916999        0.2361382256
 H          0.8823219306       -2.1234770733       -0.4741383521
 H         -0.1481044147       -1.3044247763       -1.6598719791
 H          1.8533052770        0.0157820948       -1.3083827994
 H          0.8312554986        2.1544567282       -0.5097507569
 H         -0.1875749788        1.2849425198       -1.6613797606
 H         -0.5051577295        1.2500318115        1.3750575762
 H         -1.5365523799        2.1384089075        0.2455616443
 H          2.1996517147        0.7965319468        0.8918565032
  19
  -23.0417395600000       1.215209175618506E-004 !mtd2
 C         -1.9056661969        0.0255177212        0.2370887670
 C         -1.1916031963       -1.2110916101       -0.3240880401
 C          0.2513581491       -1.2675848676        0.1637723720
 C          1.0670457426       -0.1018170766       -0.4206758906
 C          0.1832337127        1.1486393447       -0.5928065774
 C         -0.9277960488        1.1876477751        0.4511652187
 O          2.2096680254        0.1702255116        0.3630512126
 H         -2.3828225727       -0.2203685606        1.1877182181
 H         -2.6940141752        0.3285799466       -0.4538826723
 H         -1.7232499499       -2.1147096659       -0.0220119596
 H         -1.1901695122       -1.1815407556       -1.4152142103
 H          0.2673405082       -1.2058306569        1.2552899563
 H          0.7155504479       -2.2143819987       -0.1146947933
 H          1.4774848930       -0.3885596945       -1.3945146231
 H          0.8196137221        2.0321826554       -0.5110866665
 H         -0.2608678100        1.1517175617       -1.5887915956
 H         -0.4886595164        1.1271615402        1.4499308196
 H         -1.4616557758        2.1376301950        0.3928804246
 H          1.9165178545        0.4520425248        1.2374639355
  19
  -23.0417395100000       1.215144880914628E-004 !gc
 C         -1.9053957318       -0.0254301510        0.2381990371
 C         -0.9273555555       -1.1877040676        0.4508749605
 C          0.1831110962       -1.1481924102       -0.5936367435
 C          1.0673422891        0.1017988906       -0.4207446015
 C          0.2513583696        1.2678200559        0.1629327016
 C         -1.1918338067        1.2108260712       -0.3242715781
 O          2.2091328613       -0.1706913607        0.3639634197
 H         -2.3810564112        0.2208375217        1.1894730617
 H         -2.6948708592       -0.3283704819       -0.4515310214
 H         -0.4875153403       -1.1279291819        1.4493636349
 H         -1.4613186247       -2.1376244994        0.3923810762
 H          0.8194334129       -2.0318506276       -0.5130803967
 H         -0.2615271396       -1.1501994911       -1.5893606700
 H          1.4788029714        0.3882913985       -1.3942186262
 H          0.2676373977        1.2068879271        1.2545078171
 H          0.7153105457        2.2144825726       -0.1163409109
 H         -1.7235547290        2.1145569228       -0.0226570961
 H         -1.1908342381        1.1804673203       -1.4153523895
 H          1.9152567569       -0.4511979698        1.2385552347
  19
  -23.0415853000000       1.032186209899120E-004 !mtd2
 C         -1.8123620160       -0.0413010676       -0.4211776145
 C         -1.1841133744       -1.1591868298        0.4037691200
 C          0.2977260253       -1.3169992143        0.0454215450
 C          0.9433140194        0.0276244850       -0.3374972785
 C          0.2532618911        1.1654402830        0.4189291760
 C         -1.2024523052        1.3129899542       -0.0375150917
 O          2.3375233206        0.0170098780       -0.1220032268
 H         -2.8920982075       -0.0184418813       -0.2648639418
 H         -1.6371417161       -0.2453156945       -1.4789059795
 H         -1.2948949157       -0.9213349136        1.4634751595
 H         -1.7060737549       -2.1003469842        0.2242069002
 H          0.8395738598       -1.7358061647        0.8980604217
 H          0.4132004984       -2.0154653527       -0.7844335588
 H          0.8425748362        0.2025596488       -1.4132928527
 H          0.2960378292        0.9479464950        1.4895876792
 H          0.7988364879        2.0950374739        0.2487754549
 H         -1.7816406495        1.7659612935        0.7691533405
 H         -1.2537268191        1.9862747365       -0.8944547138
 H          2.5001559900       -0.0948452317        0.8221929586
  19
  -23.0415852800000       1.032164365046020E-004 !mtd2
 C         -1.8113114270        0.0412215924       -0.4225714344
 C         -1.2024436562       -1.3129055380       -0.0366906149
 C          0.2534088218       -1.1654898666        0.4194152150
 C          0.9429145303       -0.0274502342       -0.3370791529
 C          0.2977992644        1.3168659305        0.0474003878
 C         -1.1849121187        1.1595463001        0.4030070903
 O          2.3374219570       -0.0173744736       -0.1233096547
 H         -2.8913533806        0.0184881498       -0.2684045836
 H         -1.6339476930        0.2445353894       -1.4801244732
 H         -1.7819290094       -1.7641762419        0.7708406934
 H         -1.2542384125       -1.9875375963       -0.8925811203
 H          0.2964744247       -0.9481110626        1.4901720019
 H          0.7989409344       -2.0951691180        0.2489546844
 H          0.8408868551       -0.2017412962       -1.4129410535
 H          0.8386249653        1.7332589232        0.9017652679
 H          0.4151818753        2.0167653768       -0.7808752063
 H         -1.2979116023        0.9221813961        1.4627496682
 H         -1.7067524455        2.1006157684        0.2218357223
 H          2.5014686285        0.0962145243        0.8203568883
  19
  -23.0407165000000       4.116093366219579E-005 !mtd8
 C         -1.4797043287       -0.0190008471        0.7262830791
 C         -1.1954516923       -1.1636323057       -0.2400309964
 C          0.3124885011       -1.3887189783       -0.3702473851
 C          1.1111492063       -0.0674665874       -0.4206289852
 C          0.2018550535        1.0945868243       -0.8317502441
 C         -0.9469826433        1.3078261347        0.1636575039
 O          1.7758149239        0.1941843641        0.7966053291
 H         -1.0092520281       -0.2483764016        1.6864798607
 H         -2.5528385648        0.0611109497        0.9086067035
 H         -1.6697083573       -2.0809076293        0.1139452668
 H         -1.6264571409       -0.9258058972       -1.2140736982
 H          0.6764196218       -1.9603275984        0.4865122465
 H          0.5158739492       -1.9774354945       -1.2653693902
 H          1.9259277294       -0.1607009276       -1.1469185833
 H          0.7964505258        2.0065843924       -0.9052494523
 H         -0.1954617410        0.8760060146       -1.8236133518
 H         -0.6148793866        1.9490055772        0.9832307091
 H         -1.7499390616        1.8401112579       -0.3495590768
 H          1.1083298317        0.3554676379        1.4724289649
  19
  -23.0407163700000       4.115527173424555E-005 !mtd1
 C         -1.4806979801        0.0188951555        0.7255959799
 C         -0.9461242774       -1.3078974029        0.1645433021
 C          0.2015660162       -1.0941572836       -0.8319189192
 C          1.1111677030        0.0676111049       -0.4207355761
 C          0.3125442568        1.3887681393       -0.3694888874
 C         -1.1954979589        1.1636554794       -0.2402840464
 O          1.7761914706       -0.1947192616        0.7961844209
 H         -1.0123494906        0.2488182170        1.6866418168
 H         -2.5541187079       -0.0616678342        0.9057359124
 H         -0.6119819240       -1.9471434020        0.9847815721
 H         -1.7483776346       -1.8426315175       -0.3470736636
 H          0.7958609517       -2.0062725536       -0.9066681161
 H         -0.1966628711       -0.8747940180       -1.8232361302
 H          1.9257486473        0.1610350292       -1.1471338109
 H          0.6760885327        1.9598733951        0.4878953326
 H          0.5162282322        1.9783740952       -1.2641404307
 H         -1.6700463462        2.0809076727        0.1134535543
 H         -1.6257924082        0.9261669975       -1.2147439609
 H          1.1086141833       -0.3545011667        1.4724787094
