  19
        -23.04985169
 C         -1.8940723386        0.0000615966        0.2839479725
 C         -1.1879755593       -1.2530456960       -0.2255847248
 C          0.2773393596       -1.2528874026        0.1987602701
 C          0.9902858745        0.0000001592       -0.3190291880
 C          0.2772663972        1.2528005609        0.1989327447
 C         -1.1879017245        1.2530479642       -0.2257587106
 O          2.3616338810        0.0000559831        0.0161167238
 H         -1.8898731143        0.0001682470        1.3766287237
 H         -2.9348285483       -0.0000079097       -0.0457761746
 H         -1.6836978690       -2.1450795664        0.1627220617
 H         -1.2474015273       -1.2841962954       -1.3157208224
 H          0.3425984509       -1.2729682796        1.2910860432
 H          0.7852965840       -2.1400997041       -0.1841882887
 H          0.9767301240        0.0000804693       -1.4145580194
 H          0.3421613334        1.2724877166        1.2913157986
 H          0.7854724767        2.1400640853       -0.1835591996
 H         -1.6836479479        2.1451966373        0.1622140301
 H         -1.2471152079        1.2839182703       -1.3159146675
 H          2.4398657332       -0.0001804316        0.9773159189
