! r2scan-3c def2/J RI DEFGRID2 scfconv6 printgap
%output
    printlevel normal
end
%cpcm
    smd true
    smdsolvent "water"
end
* xyz 0 1
C -2.1683138467 0.6495366863 0.5713585472
C -1.3428005146 0.2970436804 -0.6618789775
C -0.5420573556 -0.9958592763 -0.5013941242
C 0.582005778 -0.88628582 0.5399294375
C 1.5613073425 0.0919643731 0.1618618008
N 2.3474571414 0.8670367306 -0.1459666559
H -2.8110863404 -0.1825320336 0.8502169558
H -1.531442285 0.8976219721 1.4168956464
H -2.7959782425 1.5127278666 0.3651011901
H -2.0155862819 0.1780882619 -1.5137398576
H -0.6604624324 1.1188625404 -0.8928210902
H -0.1043687484 -1.2649431217 -1.4650989506
H -1.2122161374 -1.8014328592 -0.1968026759
H 0.1761157816 -0.6070650444 1.5143883133
H 1.0920161012 -1.8475412189 0.6409620589
*
