  15
        -17.72299715
 C          2.4233019243        0.1877548880       -0.1566140706
 C          1.0039884878        0.3016480286        0.3841235832
 C          0.0695376784       -0.7288949240       -0.2460001676
 C         -1.3741428292       -0.5531161533        0.2270503057
 O         -1.9215804016        0.6950466993       -0.1258334635
 H          2.8298099482       -0.8014699427        0.0437971195
 H          2.4393897489        0.3516026147       -1.2322442804
 H          3.0701515869        0.9257662667        0.3114509722
 H          1.0126486154        0.1589214170        1.4666605705
 H          0.6130867397        1.3018738621        0.1871036627
 H          0.1028354425       -0.6319388828       -1.3357262779
 H          0.4007828676       -1.7373416053        0.0089104089
 H         -1.9954055422       -1.3682077380       -0.1750722433
 H         -1.4210581645       -0.5907257879        1.3178568824
 H         -1.8448190737        0.8037496367       -1.0806324873
  15
        -17.72281620
 C          2.5756416676        0.0430169822       -0.2161889842
 C          1.2753774932       -0.1272643015        0.5600045657
 C          0.0543381781        0.0744612564       -0.3326973062
 C         -1.2531613482       -0.1047448302        0.4390642344
 O         -2.3927721174        0.1357808371       -0.3525603310
 H          3.4324463337       -0.1035080931        0.4370499715
 H          2.6347912376       -0.6801453083       -1.0268298055
 H          2.6362467644        1.0413870528       -0.6435789899
 H          1.2406189944       -1.1278378412        0.9974666936
 H          1.2438606239        0.5930241250        1.3800893685
 H          0.0732603634        1.0779047865       -0.7634577017
 H          0.0849730432       -0.6439449338       -1.1579154720
 H         -1.2930076746       -1.1165513853        0.8709292927
 H         -1.3109677768        0.6180055585        1.2563650728
 H         -2.3652081471       -0.4488700941       -1.1183378598
  15
        -17.72252103
 C          2.4581832462        0.1053735563        0.1332660424
 C          1.0273719624        0.3608313094       -0.3244234067
 C          0.0674034253       -0.6993968564        0.2147123117
 C         -1.3665625034       -0.5132548945       -0.2877377087
 O         -2.0063976133        0.6204225282        0.2476752340
 H          3.1272042339        0.8689526342       -0.2567867444
 H          2.5184356853        0.1177013614        1.2192582403
 H          2.8025809488       -0.8650557369       -0.2171804743
 H          0.7196014720        1.3517720092        0.0203147884
 H          0.9903721893        0.3593271378       -1.4170950680
 H          0.4123445513       -1.6877097010       -0.0948286252
 H          0.0630905673       -0.6681396298        1.3061477931
 H         -1.3688456007       -0.4696217522       -1.3876506033
 H         -1.9816722223       -1.3610460013        0.0232744825
 H         -1.4885349301        1.4005359602        0.0211788197
  15
        -17.72213840
 C          2.1556108163        0.4551265808       -0.4110796445
 C          1.3799720839       -0.6308186877        0.3253857474
 C         -0.0332695510       -0.2007232774        0.7160371315
 C         -0.9562031127       -0.0054910377       -0.4879329026
 O         -2.2679829217        0.3442326714       -0.1117741997
 H          2.1834477815        1.3684573693        0.1788412590
 H          3.1783990757        0.1308719537       -0.5891155719
 H          1.6990020540        0.6785628710       -1.3713788204
 H          1.3241721924       -1.5253229028       -0.2996635953
 H          1.9230078924       -0.8970542333        1.2351897520
 H         -0.4698744297       -0.9674048477        1.3646706163
 H          0.0073159489        0.7308480928        1.2844026556
 H         -0.6108272389        0.8219634758       -1.1098721935
 H         -0.9642346762       -0.9214049743       -1.0988743378
 H         -2.6100892170       -0.3327405049        0.4830198368
  15
        -17.72211741
 C          2.0186818163        0.3205933330       -0.5494975726
 C          1.0903292030        0.1672446821        0.6490250153
 C          0.0070910907       -0.8904146934        0.4287546148
 C         -1.1050265652       -0.4110229402       -0.5066835161
 O         -1.7890443626        0.7164850855       -0.0133844944
 H          1.4700387419        0.6552945242       -1.4257788551
 H          2.7922677807        1.0540357791       -0.3343925619
 H          2.4998205222       -0.6269885956       -0.7841361096
 H          1.6823550232       -0.1098192085        1.5243603793
 H          0.6077359375        1.1240495300        0.8585913494
 H          0.4501592322       -1.7962008415        0.0109238869
 H         -0.4416362718       -1.1518426145        1.3923737835
 H         -0.6932562000       -0.1011723477       -1.4685994339
 H         -1.8109560922       -1.2367338551       -0.6855866830
 H         -2.1229459701        0.5114468250        0.8673229219
  15
        -17.72203476
 C          2.1668047151        0.5687406265       -0.1727856912
 C          1.3672372853       -0.5585017147        0.4709953352
 C         -0.0273454449       -0.7279264034       -0.1302735692
 C         -0.9601518416        0.4478837272        0.1654808427
 O         -2.2884613199        0.1924607883       -0.2313979147
 H          1.7042959946        1.5337722848        0.0160796830
 H          3.1756697612        0.5922338555        0.2326311558
 H          2.2349139964        0.4220352705       -1.2487519506
 H          1.9136310360       -1.4957758191        0.3428761925
 H          1.2756784592       -0.3729969794        1.5431853947
 H          0.0572330453       -0.8572665429       -1.2137003931
 H         -0.4868343961       -1.6309697583        0.2787939677
 H         -1.0098043320        0.6258310138        1.2424388253
 H         -0.5913207233        1.3612003278       -0.3218101042
 H         -2.2932470627       -0.0179724947       -1.1718149987
  15
        -17.72182207
 C          1.6100196833        0.9058003849       -0.0433595299
 C          1.3034229637       -0.5793372316       -0.1960373462
 C         -0.0067943986       -0.9953672837        0.4752445357
 C         -1.2612217467       -0.4539660814       -0.2159734110
 O         -1.4603754599        0.9310531549       -0.0598444419
 H          2.5499662551        1.1485016445       -0.5339371961
 H          0.8214932851        1.5048351342       -0.4895950511
 H          1.6960829571        1.1712911528        1.0089328525
 H          1.2526998729       -0.8317769104       -1.2572794869
 H          2.1179809203       -1.1607591963        0.2438077078
 H         -0.0744566287       -2.0855380210        0.4727253301
 H         -0.0024008887       -0.6653003982        1.5185737575
 H         -1.1970068737       -0.6175292035       -1.2942988301
 H         -2.1397275031       -0.9999015774        0.1627327506
 H         -1.4509500582        1.1377273979        0.8814699877
  15
        -17.72152313
 C          1.9845264636        0.3284044714       -0.5576570528
 C          1.1253024072        0.1080568384        0.6826472316
 C         -0.0163909547       -0.8878255873        0.4613863696
 C         -1.0963714396       -0.3999105477       -0.5089419443
 O         -1.8326966993        0.6965698653       -0.0214697834
 H          1.4132640905        0.7865572965       -1.3612890345
 H          2.8210838122        0.9831294719       -0.3238651099
 H          2.3807528124       -0.6189597024       -0.9165618618
 H          1.7591020480       -0.2758170820        1.4853502483
 H          0.7235463933        1.0659188894        1.0249177984
 H          0.3920875348       -1.8233128545        0.0748319115
 H         -0.4941996702       -1.0972105754        1.4209529621
 H         -0.6498911671       -0.1579574579       -1.4836041297
 H         -1.8319463398       -1.1934419629       -0.6617897582
 H         -1.2203357567        1.4182673302        0.1590911259
  15
        -17.72097334
 C          1.6519775631        0.8772574225       -0.0869765629
 C          1.3424433992       -0.5705234808        0.2820160645
 C         -0.0284250059       -1.0561601130       -0.1946786413
 C         -1.2117584642       -0.2867662909        0.4060868950
 O         -1.6065096438        0.8272981298       -0.3588785100
 H          2.6885261871        1.1089450792        0.1491415055
 H          1.5035805189        1.0431576471       -1.1526615335
 H          1.0269306275        1.5697756746        0.4738050618
 H          2.1041577873       -1.2171470112       -0.1599065182
 H          1.4040260706       -0.6853544170        1.3669405585
 H         -0.0912264401       -0.9821623869       -1.2828520935
 H         -0.1280488721       -2.1098503797        0.0720016359
 H         -2.0959862345       -0.9278965629        0.4378754850
 H         -0.9738308619        0.0177660875        1.4365126036
 H         -0.8413990702        1.3983967548       -0.4876005849
  15
        -17.72057259
 C          2.5665884061        0.0806563524       -0.2376817166
 C          1.2797657479       -0.2085349755        0.5251596857
 C          0.0464875139        0.1196346535       -0.3102389364
 C         -1.2484247543       -0.1655557710        0.4424313309
 O         -2.3351043303        0.1637771341       -0.3968733954
 H          2.6104996193       -0.5122938085       -1.1484200225
 H          2.6187719997        1.1318792076       -0.5117737416
 H          3.4349363270       -0.1596432813        0.3714112299
 H          1.2545298400       -1.2632804052        0.8091531043
 H          1.2616538027        0.3816458520        1.4444770738
 H          0.0551012342        1.1732753531       -0.5937253146
 H          0.0477712929       -0.4698721627       -1.2284403650
 H         -1.2885354610       -1.2288335975        0.7230665167
 H         -1.2813530270        0.4324246544        1.3656148891
 H         -3.1590779054       -0.0139526642        0.0674514580
  15
        -17.72045306
 C          2.4239167272        0.1899177139       -0.1762242239
 C          1.0103917143        0.2955317753        0.3808649441
 C          0.0644165395       -0.7024971319       -0.2817826251
 C         -1.3626510555       -0.5657586706        0.2395154240
 O         -1.8760284256        0.6877474390       -0.1605350370
 H          2.4287757639        0.3929328097       -1.2447412772
 H          3.0813431910        0.9055339576        0.3119781923
 H          2.8244734975       -0.8092274275       -0.0162406220
 H          1.0285366374        0.1135985243        1.4582700939
 H          0.6225777822        1.3014961107        0.2163536348
 H          0.0525857691       -0.5292715224       -1.3588621634
 H          0.4077113841       -1.7227812491       -0.0991727228
 H         -1.9836177479       -1.3776121454       -0.1681700210
 H         -1.3660615574       -0.6480899829        1.3366119824
 H         -2.7715452058        0.7847119802        0.1773233690
  15
        -17.72001037
 C          1.8191474356        0.7318435275       -0.3569121593
 C          1.1762504390       -0.2876350398        0.5802950680
 C          0.0199035736       -1.0564695457       -0.0747066511
 C         -1.3551102637       -0.4397994923        0.2024585032
 O         -1.5203146185        0.8565905257       -0.3176469856
 H          2.2931231924        0.2228396616       -1.1935398995
 H          1.0861756620        1.4258287640       -0.7611354416
 H          2.5812188140        1.3034811033        0.1691520616
 H          1.9459138337       -0.9956505517        0.8945041046
 H          0.8160524718        0.2132167518        1.4836292779
 H          0.1780255195       -1.1012232682       -1.1533019502
 H         -0.0063158090       -2.0797522389        0.3036515551
 H         -2.1306333855       -1.0436339049       -0.2755954043
 H         -1.5404065333       -0.4397204909        1.2877434703
 H         -0.8739471084        1.4343550334        0.1027963532
  15
        -17.71981503
 C          2.1698053217        0.5690232427       -0.1434015038
 C          1.3647403147       -0.6034035003        0.4062134496
 C         -0.0367308094       -0.7049279251       -0.1916198515
 C         -0.9529164406        0.4459036060        0.2131207417
 O         -2.2525022202        0.1580850310       -0.2614816673
 H          1.7219121891        1.5182067081        0.1389797258
 H          3.1848512828        0.5448408653        0.2468069527
 H          2.2189368055        0.5200052389       -1.2288429937
 H          1.8985560294       -1.5306028942        0.1869857459
 H          1.2892669110       -0.5148115043        1.4925245191
 H          0.0220889648       -0.7365760515       -1.2806720677
 H         -0.5100143657       -1.6308272127        0.1401748306
 H         -0.9594329695        0.5449697154        1.3093074320
 H         -0.5945237290        1.3910903919       -0.2169913976
 H         -2.8426208746        0.8807240162       -0.0256293170
  15
        -17.71948649
 C          2.3712754436        0.0375910767        0.2983256888
 C          1.0059715873        0.4872608969       -0.2070783772
 C          0.0497613904       -0.6939927372       -0.4430647862
 C         -1.2559174250       -0.5437590399        0.3398985690
 O         -1.9532275679        0.6393024334        0.0294668303
 H          2.2729504703       -0.4993066777        1.2393453047
 H          2.8503028781       -0.6195603891       -0.4248582414
 H          3.0183665525        0.8967290674        0.4605960938
 H          0.5570335013        1.1647178177        0.5215169050
 H          1.1380532751        1.0515617937       -1.1319649134
 H         -0.1860943740       -0.7852034595       -1.5066379030
 H          0.5219258185       -1.6271379419       -0.1325846148
 H         -1.8954623491       -1.4220958624        0.1612302313
 H         -1.0480901951       -0.4826276130        1.4107778903
 H         -2.0960406492        0.6701642478       -0.9231411899
  15
        -17.71936641
 C          2.0393406148        0.2796943377       -0.5287734189
 C          1.0847055204        0.1942651415        0.6563568585
 C         -0.0106979499       -0.8563341467        0.4702427779
 C         -1.0882979374       -0.4215009919       -0.5191241991
 O         -1.7827666249        0.6827101849        0.0241380646
 H          1.5178375955        0.5813459046       -1.4335668419
 H          2.8202419915        1.0104434610       -0.3309813118
 H          2.5103965979       -0.6847427919       -0.7096171966
 H          1.6572931062       -0.0547461323        1.5523654861
 H          0.6091520208        1.1618840834        0.8206980228
 H          0.4255693468       -1.7953933845        0.1243057335
 H         -0.4992636565       -1.0346918321        1.4294266049
 H         -0.6350243221       -0.1524250423       -1.4830021522
 H         -1.7819021179       -1.2584016157       -0.6913239688
 H         -2.4569051739        0.9690601321       -0.5993525870
  15
        -17.71883401
 C          1.6412990533        0.8671793257       -0.2057335401
 C          1.2948872007       -0.4829032775        0.4087071518
 C         -0.0014040405       -1.0732311706       -0.1475688846
 C         -1.2644177791       -0.3627399882        0.3366646694
 O         -1.4342703709        0.8542442331       -0.3604094081
 H          0.8252130097        1.5686056193       -0.0640352115
 H          2.5410608362        1.2739469197        0.2511603839
 H          1.8137316251        0.7616348466       -1.2742988408
 H          2.1085953306       -1.1854517208        0.2114954003
 H          1.2044391700       -0.3806349541        1.4930618765
 H          0.0153671981       -1.0289512556       -1.2372881858
 H         -0.0744769261       -2.1204832470        0.1536124940
 H         -2.1323138385       -1.0158655043        0.1587304793
 H         -1.1939223809       -0.1772824121        1.4189048386
 H         -2.2455865219        1.2771127129       -0.0624408017
  15
        -17.71671530
 C          1.6170011927        0.8912450250       -0.1737494090
 C          1.3475405360       -0.6119711299       -0.0206759598
 C         -0.0286997063       -0.9352439132        0.5647221193
 C         -1.2018948764       -0.4432918977       -0.2919418219
 O         -1.5251450860        0.9143904167       -0.0976266471
 H          2.5126361403        1.1866352818        0.3670994846
 H          1.7526632775        1.1593517618       -1.2177306146
 H          0.7838902766        1.4746599192        0.2048163944
 H          1.4314265722       -1.1047277817       -0.9910594046
 H          2.1014348232       -1.0587424818        0.6312526347
 H         -0.1140871974       -2.0192659775        0.6693157541
 H         -0.1129582384       -0.4986138023        1.5642276019
 H         -0.9593416664       -0.5336064385       -1.3526111436
 H         -2.0861780520       -1.0654009302       -0.0867607069
 H         -1.7625396914        1.0444280190        0.8274304842
