  27
        -31.70883892
 C          3.8932589209       -1.5436677715       -0.2205110610
 C          3.2775332571       -0.1882143773       -0.5446738605
 C          1.9981857263        0.0579021116        0.2509697977
 C          1.3768769751        1.4140958040       -0.0701819183
 C          0.0913791285        1.6696082849        0.7279356634
 C         -0.9889692828        0.6950524204        0.3553985222
 C         -1.2879326973       -0.3912179996        1.1671420153
 C         -2.2620299069       -1.3029080125        0.7990857106
 C         -2.9517637604       -1.1403374901       -0.3896196764
 C         -2.6634786064       -0.0596626771       -1.2059503239
 C         -1.6897569736        0.8494239528       -0.8348112742
 H          4.1468240271       -1.6048301458        0.8356753167
 H          3.1930515676       -2.3438833072       -0.4503598822
 H          4.7994151173       -1.7027582294       -0.8005262107
 H          3.9997906571        0.6011717010       -0.3224385492
 H          3.0521149256       -0.1385507027       -1.6125141318
 H          2.2241021269        0.0075915763        1.3190726188
 H          1.2768040045       -0.7310745522        0.0264411528
 H          2.0974941659        2.2040781006        0.1552731139
 H          1.1514552313        1.4628025827       -1.1379157331
 H         -0.2513835261        2.6871570044        0.5245867194
 H          0.3106094484        1.5913457666        1.7947292056
 H         -0.7533703126       -0.5238035386        2.0973230468
 H         -2.4829594148       -2.1427276386        1.4421290933
 H         -3.7123155574       -1.8510839270       -0.6780786234
 H         -3.2005855075        0.0751850935       -2.1338587544
 H         -1.4710089474        1.6934840308       -1.4740495017
