  20
        -28.90974320
 C         -2.7331660640       -0.2598651568       -0.0049200140
 C         -2.3491460422        1.0878183482        0.0103099096
 C         -1.0244611120        1.4287397272        0.0119066275
 C         -0.0149863196        0.4442663361       -0.0026448490
 C         -0.4061329479       -0.9221979825       -0.0059346972
 C         -1.7811199605       -1.2390021822       -0.0103623544
 C          0.5751121288       -1.9338049332        0.0009836983
 C          1.9019728673       -1.6050184221        0.0112013269
 C          2.3013895233       -0.2672032228       -0.0002122418
 C          1.3772910887        0.7576211476       -0.0120730942
 N          1.8081812509        2.0687411522        0.0357048843
 H         -3.7830412668       -0.5148131526       -0.0082432068
 H         -3.1071447202        1.8575778492        0.0231259709
 H         -0.7559912374        2.4751283093        0.0392463129
 H         -2.0666787508       -2.2815980324       -0.0156761194
 H          0.2600283410       -2.9666996416        0.0010610341
 H          2.6573078077       -2.3774704447        0.0191508428
 H          3.3554384608       -0.0254919376       -0.0013182210
 H          1.1922562397        2.7689384571       -0.3419106948
 H          2.7796193963        2.2104892111       -0.1908205215
