  20
  -28.9097432000000       0.500015872922990      !md2
 C         -2.7331660640       -0.2598651568       -0.0049200140
 C         -2.3491460422        1.0878183482        0.0103099096
 C         -1.0244611120        1.4287397272        0.0119066275
 C         -0.0149863196        0.4442663361       -0.0026448490
 C         -0.4061329479       -0.9221979825       -0.0059346972
 C         -1.7811199605       -1.2390021822       -0.0103623544
 C          0.5751121288       -1.9338049332        0.0009836983
 C          1.9019728673       -1.6050184221        0.0112013269
 C          2.3013895233       -0.2672032228       -0.0002122418
 C          1.3772910887        0.7576211476       -0.0120730942
 N          1.8081812509        2.0687411522        0.0357048843
 H         -3.7830412668       -0.5148131526       -0.0082432068
 H         -3.1071447202        1.8575778492        0.0231259709
 H         -0.7559912374        2.4751283093        0.0392463129
 H         -2.0666787508       -2.2815980324       -0.0156761194
 H          0.2600283410       -2.9666996416        0.0010610341
 H          2.6573078077       -2.3774704447        0.0191508428
 H          3.3554384608       -0.0254919376       -0.0013182210
 H          1.1922562397        2.7689384571       -0.3419106948
 H          2.7796193963        2.2104892111       -0.1908205215
  20
  -28.9097431400000       0.499984127077010      !mtd3
 C         -2.7331395515       -0.2599025759       -0.0111481638
 C         -2.3491109557        1.0878727325       -0.0087059911
 C         -1.0244581668        1.4288149944        0.0002240405
 C         -0.0149812832        0.4442711492        0.0080661028
 C         -0.4061276448       -0.9221357775       -0.0058823743
 C         -1.7811280482       -1.2389966039       -0.0120137238
 C          0.5751037453       -1.9336759475       -0.0192769981
 C          1.9020149339       -1.6048238165       -0.0200553176
 C          2.3013849607       -0.2672822558        0.0074563726
 C          1.3772916048        0.7574562729        0.0266845507
 N          1.8082319231        2.0688491743       -0.0052370534
 H         -3.7830387490       -0.5147925614       -0.0165011630
 H         -3.1072018270        1.8577103574       -0.0165353509
 H         -0.7560525433        2.4755001852       -0.0135545846
 H         -2.0665661870       -2.2816042852       -0.0201938170
 H          0.2600324082       -2.9665457206       -0.0316808774
 H          2.6573786809       -2.3771921371       -0.0328645058
 H          3.3553831929       -0.0257108921        0.0154314213
 H          2.7791576222        2.2089101895        0.2248068913
 H          1.1908483124        2.7653704917        0.3768078602
