! wb97x-v def2-tzvp def2/J RIJCOSX DEFGRID2 scfconv7 GCP(DFT/TZ) printgap
%output
    printlevel normal
end
* xyz 0 1
C 2.870368169542877 -0.3833308751934148 -0.08067365254769145
C 1.4199060524224785 -0.3552656128316792 0.39307709215574727
C 0.6383932090190929 0.8058898197043717 -0.21575986543875456
C -0.7841064888237199 0.9494690586047628 0.3062880785351278
S -1.9279343304753473 -0.4316733516334214 -0.16538384963527064
H 3.417422945548111 -1.2233457156961556 0.3588479387720532
H 3.3923850429008966 0.5392219565008919 0.19639780580261787
H 2.9241246811851287 -0.48230203970576874 -1.1706033929104487
H 1.3880836705239528 -0.2747146925912811 1.4878243157637419
H 0.9363730629366052 -1.304834210671475 0.1328054413757644
H 0.6234560511356979 0.7145235118855178 -1.308903696071417
H 1.1607017056441489 1.7450108575338847 0.0170567867923194
H -0.7978025756172967 1.0468270637724146 1.3960228414203784
H -1.2590425805924732 1.8419239223809722 -0.11208329676966027
H -1.3576248345933204 -1.389244191348503 0.5872223763922103
*
