  8
  -19.5922203800000       0.333350969621825      !mtd11
 C         -0.9226916978       -1.6247660547        0.0007059924
 S         -0.4633418203        0.1131021206       -0.0000070996
 O         -0.8403474567        0.7265922131        1.2293545092
 O         -0.8404632344        0.7252842060       -1.2300001027
 Cl         1.5764691760       -0.0417254888       -0.0000133468
 H         -0.5159802177       -2.0735042385        0.8965249782
 H         -2.0048052717       -1.6675071061        0.0011752805
 H         -0.5166293174       -2.0738976016       -0.8951700158
  8
  -19.5922203700000       0.333347442137432      !md2
 C         -0.9228271604       -1.6247900556        0.0008612514
 S         -0.4633281344        0.1129768756       -0.0000451527
 O         -0.8403948519        0.7264923923        1.2293257753
 O         -0.8403281624        0.7253654774       -1.2299308002
 Cl         1.5764777617       -0.0415982283       -0.0000729901
 H         -2.0050035653       -1.6672073526        0.0007232421
 H         -0.5162891732       -2.0743704567       -0.8944963096
 H         -0.5166368944       -2.0732431902        0.8971175048
  8
  -19.5922202400000       0.333301588240743      !mtd12
 C         -0.9226272189       -1.6247194591        0.0009940156
 S         -0.4632624370        0.1129958112       -0.0001123629
 O         -0.8405617564        0.7265450115        1.2291435848
 O         -0.8405437825        0.7256588558       -1.2298465137
 Cl         1.5764964799       -0.0417918620       -0.0000308959
 H         -0.5124890780       -2.0757429420       -0.8921896624
 H         -0.5197316556       -2.0718981460        0.8993786329
 H         -2.0047675436       -1.6673047972       -0.0032153352
