  8
        -19.59222038
 C         -0.9226916978       -1.6247660547        0.0007059924
 S         -0.4633418203        0.1131021206       -0.0000070996
 O         -0.8403474567        0.7265922131        1.2293545092
 O         -0.8404632344        0.7252842060       -1.2300001027
 Cl         1.5764691760       -0.0417254888       -0.0000133468
 H         -0.5159802177       -2.0735042385        0.8965249782
 H         -2.0048052717       -1.6675071061        0.0011752805
 H         -0.5166293174       -2.0738976016       -0.8951700158
