! r2scan-3c def2/J RI DEFGRID2 scfconv6 printgap
%output
    printlevel normal
end
* xyz 0 1
C 1.6345218182 -1.2160619932 -0.6290286828
C 1.0815021899 -0.2780585372 0.4431399706
C 1.2794980624 1.1795440038 0.0301414775
C -0.3832111281 -0.6026951548 0.7786157601
C -1.4088961258 -0.2819208162 -0.3166271939
O -1.9917896214 1.0005512501 -0.1878990752
H 2.6923194791 -1.0205621038 -0.787816751
H 1.119571076 -1.0768968331 -1.576379656
H 1.5187020961 -2.2537052463 -0.3257709351
H 1.6548177823 -0.4489656521 1.362031432
H 2.3404787827 1.3956777738 -0.074263533
H 0.8712140928 1.8509304115 0.7821644743
H 0.8067011733 1.3777345756 -0.9291452372
H -0.6804712319 -0.0530117862 1.6748561047
H -0.4484336601 -1.666781549 1.0105731948
H -0.966440753 -0.3939978922 -1.3138140871
H -2.2532608644 -0.9714762433 -0.2440082454
H -1.2953175218 1.6689138751 -0.2451518024
*
