  6
         -8.68850102
 C          1.2735644187        0.0000130159        0.0000094974
 C         -0.1631244210       -0.0000150671       -0.0000167455
 N         -1.3057290030        0.0000024508        0.0000067469
 H          1.6376089465       -0.3129824463       -0.9778702090
 H          1.6376023659       -0.6904185712        0.7599644487
 H          1.6374383704        1.0033914017        0.2178983736
