  18
  -26.5481314800000       0.166673133461454      !mtd11
 C         -2.7582885477       -0.7650205352        0.0005527305
 O         -1.7977469188        0.2580513114       -0.0179339904
 C         -0.4673695260       -0.1014391356        0.0005758783
 C          0.0048073019       -1.4001224269        0.0085923222
 C          1.3715452731       -1.6496982337        0.0083315054
 C          2.2671627221       -0.6002345581       -0.0054529946
 C          1.8028876805        0.7043101373       -0.0151217403
 C          0.4414295323        0.9763774428       -0.0068057400
 N         -0.0391626737        2.2704816552        0.0630751373
 H         -2.6773161072       -1.3767295802        0.9050659645
 H         -2.6789738924       -1.4099475024       -0.8814975273
 H         -3.7252276016       -0.2632480367       -0.0074496713
 H         -0.6795958112       -2.2339857303        0.0125961812
 H          1.7232176290       -2.6700758975        0.0155791646
 H          3.3298302513       -0.7905072536       -0.0111291148
 H          2.4983922333        1.5311666165       -0.0263623235
 H          0.5735832716        2.9880114753       -0.2892191775
 H         -1.0069948793        2.3704694578       -0.1982882957
  18
  -26.5481314600000       0.166669606046115      !mtd2
 C         -2.7582356446       -0.7650137019        0.0006815642
 O         -1.7977565324        0.2580058777       -0.0181463935
 C         -0.4673373265       -0.1013962887        0.0004712032
 C          0.0048116948       -1.4001032792        0.0086601150
 C          1.3715181461       -1.6497223777        0.0083768881
 C          2.2671147138       -0.6002559896       -0.0055013310
 C          1.8028766490        0.7043052129       -0.0151389006
 C          0.4414355078        0.9764091198       -0.0067914691
 N         -0.0391866593        2.2704962128        0.0631999364
 H         -3.7252536222       -0.2633989668       -0.0073176624
 H         -2.6770032358       -1.3767305160        0.9051858109
 H         -2.6790398109       -1.4100835999       -0.8811518432
 H         -0.6796679834       -2.2338884001        0.0128495942
 H          1.7232663391       -2.6700735641        0.0158414949
 H          3.3297825875       -0.7905529844       -0.0113759062
 H          2.4985043291        1.5310919618       -0.0266764373
 H         -1.0069230281        2.3705704236       -0.1986253722
 H          0.5736245717        2.9881422007       -0.2888232561
  18
  -26.5481314600000       0.166669606046115      !mtd10
 C         -2.7582191448       -0.7651542996        0.0010462258
 O         -1.7978236060        0.2580074514       -0.0183847464
 C         -0.4673733896       -0.1013562856        0.0003967635
 C          0.0048051805       -1.4000573105        0.0084246992
 C          1.3715108140       -1.6497355890        0.0083230486
 C          2.2671587340       -0.6002644987       -0.0053560091
 C          1.8028559608        0.7042675132       -0.0149751983
 C          0.4414101315        0.9764348736       -0.0067821724
 N         -0.0390402370        2.2706285986        0.0631493430
 H         -2.6763686407       -1.3769993308        0.9055290958
 H         -2.6797117156       -1.4099519675       -0.8810720062
 H         -3.7252444296       -0.2636323669       -0.0062066733
 H         -0.6795865749       -2.2339491159        0.0122587215
 H          1.7230934164       -2.6701437814        0.0156501322
 H          3.3298126024       -0.7904665680       -0.0109659036
 H          2.4984732089        1.5310086197       -0.0262045796
 H         -1.0070284261        2.3704424342       -0.1979578422
 H          0.5733031140        2.9879560621       -0.2904427216
  18
  -26.5481314500000       0.166667842366127      !mtd1
 C         -2.7582531846       -0.7650180803        0.0005291712
 O         -1.7977546513        0.2580182736       -0.0179720968
 C         -0.4673687713       -0.1014283850        0.0005862134
 C          0.0048114543       -1.4001145998        0.0086519474
 C          1.3715345699       -1.6497022684        0.0083926144
 C          2.2671301856       -0.6002458908       -0.0054976662
 C          1.8028495122        0.7042960414       -0.0151848496
 C          0.4414076505        0.9763709437       -0.0067754828
 N         -0.0391477008        2.2705308176        0.0631487161
 H         -2.6796856708       -1.4092116232       -0.8820276995
 H         -3.7252540838       -0.2633705266       -0.0064695961
 H         -2.6766192754       -1.3775487691        0.9044632964
 H         -0.6795887537       -2.2339804992        0.0127155245
 H          1.7232365169       -2.6700758387        0.0156442765
 H          3.3297937657       -0.7905298169       -0.0115170505
 H          2.4984389111        1.5311188117       -0.0265873728
 H         -1.0067521505        2.3708401076       -0.1989899079
 H          0.5740114967        2.9879308546       -0.2887112300
  18
  -26.5481314100000       0.166660787833431      !mtd11
 C         -2.7582761521       -0.7648687677       -0.0129339951
 O         -1.7977717264        0.2576531013        0.0241648536
 C         -0.4673868690       -0.1014325646       -0.0015951008
 C          0.0047963871       -1.3997984514       -0.0311148362
 C          1.3715366205       -1.6493205094       -0.0357204736
 C          2.2671661384       -0.6002608498       -0.0051041649
 C          1.8028694872        0.7039868676        0.0258308930
 C          0.4414431073        0.9761620964        0.0224155237
 N         -0.0391707052        2.2711861829       -0.0268409810
 H         -2.6767230501       -1.3606941006       -0.9280504073
 H         -3.7252644064       -0.2633879850        0.0034428609
 H         -2.6796265627       -1.4252084520        0.8577222583
 H         -0.6795502800       -2.2334798807       -0.0480865585
 H          1.7232708976       -2.6694363650       -0.0598057981
 H          3.3298424787       -0.7905218622       -0.0028065175
 H          2.4984441806        1.5304788776        0.0500021578
 H          0.5741373854        2.9831877433        0.3357075951
 H         -1.0068036791        2.3672289680        0.2367763839
  18
  -26.5481314000000       0.166659024246757      !mtd7
 C         -2.7582933987       -0.7647708073       -0.0127322992
 O         -1.7977071669        0.2576829599        0.0233797131
 C         -0.4673261408       -0.1014655725       -0.0015903462
 C          0.0048011582       -1.3998281996       -0.0307562078
 C          1.3715740862       -1.6493597496       -0.0355226172
 C          2.2671609480       -0.6002364272       -0.0054081589
 C          1.8029055684        0.7040181175        0.0255981993
 C          0.4414687983        0.9761740915        0.0223896996
 N         -0.0392848850        2.2711347989       -0.0263171051
 H         -3.7252653594       -0.2631565078        0.0018410520
 H         -2.6804320834       -1.4234386245        0.8592469783
 H         -2.6761092793       -1.3624270524       -0.9265233850
 H         -0.6796079057       -2.2335525562       -0.0479470405
 H          1.7232916285       -2.6694676870       -0.0594727214
 H          3.3298351675       -0.7905293088       -0.0028898837
 H          2.4985025343        1.5304851398        0.0501720293
 H          0.5735153094        2.9830320432        0.3369127948
 H         -1.0071368892        2.3667033101        0.2363567911
