! pbe def2-sv(p) def2/J RI DEFGRID1 loosescf d4 GCP(DFT/SV(P)) printgap
%output
    printlevel normal
end
* xyz 0 1
C 0.5294099462 1.6494172795 0.6213472192
C 1.8764093063 1.9284075823 0.6867713168
C 2.8356195824 0.9663082627 0.3642307862
C 2.3929393358 -0.310479751 -0.0284789051
C 1.0259228714 -0.5773575252 -0.0809780375
C 0.08034027 0.3846537166 0.234801282
C -1.3537732162 0.0636516606 0.1702218572
C -1.8340890958 -1.1544574016 0.6517634711
C -3.1769598036 -1.4775615683 0.6008103633
C -4.0570393942 -0.5642847283 0.052025139
C -3.6375433202 0.6537174556 -0.4464710712
C -2.2884754339 0.941764003 -0.3737815903
F -1.8795519536 2.1311370283 -0.8872693196
F -5.3798941869 -0.8673404377 -0.0046886736
C 3.3046273085 -1.4088122409 -0.3988020906
O 2.910667973 -2.5196863384 -0.7175280243
O 4.5925981481 -1.1112147869 -0.364144014
O 4.1458519369 1.2369893201 0.4257712056
H -0.1821237768 2.415614121 0.8861323808
H 2.2001118488 2.9114827616 0.9939687476
H 0.7285559089 -1.5641989476 -0.4020400086
H -1.1354950015 -1.8508342072 1.0859988832
H -3.5432948311 -2.4173692687 0.9785359953
H -4.3310135768 1.353910214 -0.880967152
H 5.1509470997 -1.8711265374 -0.617000051
H 4.3047228349 2.1529850187 0.7093047125
*
