  12
  -16.9864196000000       8.972573895238112E-002 !gc
 C         -1.7610356467        0.6841758545       -0.0000235095
 C         -0.4751346016       -0.1185687599        0.0000002550
 O         -0.4371395475       -1.3290549058        0.0000051528
 N          0.6387766203        0.6522047973        0.0000630067
 C          1.9700327547        0.0982921730       -0.0000358725
 H         -1.8096375579        1.3143186202        0.8854413817
 H         -1.8087288488        1.3159728163       -0.8843820727
 H         -2.6063711414        0.0028688678       -0.0010878350
 H          0.5486727226        1.6552564659       -0.0000348479
 H          1.8675917685       -0.9856582531       -0.0007963268
 H          2.5208861553        0.4090779474        0.8901302525
 H          2.5212364949        0.4103482986       -0.8895233394
  12
  -16.9864195900000       8.972478948418511E-002 !gc
 C         -1.7610686115        0.6841469717       -0.0001008873
 C         -0.4751332779       -0.1185513584        0.0000951881
 O         -0.4371461918       -1.3290176546        0.0000086718
 N          0.6387913074        0.6521982284        0.0001810696
 C          1.9700538156        0.0982797668       -0.0001200057
 H         -2.6064248242        0.0028647418        0.0027154747
 H         -1.8080749629        1.3175007793        0.8831026284
 H         -1.8103360531        1.3126919475       -0.8866472553
 H          0.5487241541        1.6552472706        0.0002455662
 H          1.8675791246       -0.9856640148       -0.0000052966
 H          2.5213197886        0.4097284141        0.8895495543
 H          2.5208898157        0.4096002501       -0.8901166295
  12
  -16.9864195700000       8.972289057793448E-002 !mtd12
 C         -1.7610925562        0.6841426799        0.0000139408
 C         -0.4751584201       -0.1185268694       -0.0001072260
 O         -0.4371621436       -1.3290322716        0.0000224504
 N          0.6388142653        0.6522039403        0.0000365989
 C          1.9700933442        0.0982901277       -0.0000155309
 H         -2.6065361317        0.0028539554        0.0004783364
 H         -1.8089741945        1.3154096985        0.8847094359
 H         -1.8094577503        1.3148545644       -0.8850761460
 H          0.5487682150        1.6552459385        0.0000074831
 H          2.5214511106        0.4101899555        0.8895373614
 H          2.5209099411        0.4088209949       -0.8901608366
 H          1.8675639299       -0.9856172245        0.0009361226
  12
  -16.9864195600000       8.972194114021698E-002 !mtd9
 C         -1.7610505636        0.6841427635        0.0003667735
 C         -0.4751304207       -0.1185412537       -0.0001280689
 O         -0.4371136694       -1.3290133180       -0.0001690372
 N          0.6387770119        0.6522251194       -0.0008087224
 C          1.9700147580        0.0982481229        0.0005275053
 H         -1.8089653081        1.3164037319       -0.8835567510
 H         -2.6062956658        0.0028167332       -0.0008843684
 H         -1.8096174890        1.3137657259        0.8861728148
 H          0.5487995825        1.6552753179        0.0005315754
 H          2.5223476535        0.4108272078       -0.8880563578
 H          1.8675540696       -0.9857062320       -0.0010067565
 H          2.5197529222        0.4084511909        0.8915910715
  12
  -16.9864195500000       8.972099171220899E-002 !mtd8
 C         -1.7610542662        0.6841580653        0.0000788990
 C         -0.4751317538       -0.1185568077       -0.0000067066
 O         -0.4371850702       -1.3290435564       -0.0000633891
 N          0.6388026530        0.6521781977       -0.0002096971
 C          1.9700736131        0.0983249581        0.0001277453
 H         -1.8070063372        1.3194200630       -0.8818124991
 H         -2.6063906726        0.0028452939       -0.0051152670
 H         -1.8113397200        1.3107843242        0.8879440890
 H          0.5486458573        1.6552371800       -0.0000393799
 H          2.5207419043        0.4092916888        0.8903927484
 H          2.5214590128        0.4100879529       -0.8893635185
 H          1.8676014458       -0.9856133846       -0.0004684208
  12
  -16.9864195500000       8.972099171220899E-002 !gc
 C         -1.7610628317        0.6841443135       -0.0000777028
 C         -0.4751502136       -0.1185379076        0.0000681208
 O         -0.4370920891       -1.3290136890        0.0000028664
 N          0.6387997758        0.6522307927        0.0001359327
 C          1.9700149598        0.0982383257       -0.0000922831
 H         -1.8087705934        1.3163116029        0.8839376711
 H         -1.8098518042        1.3139000036       -0.8857658983
 H         -2.6063412881        0.0028352707        0.0013289705
 H          0.5486434298        1.6552600391        0.0003217423
 H          2.5220137116        0.4125543113       -0.8882766906
 H          1.8674825417       -0.9857142269       -0.0036496468
 H          2.5201205162        0.4066721287        0.8913832175
  12
  -16.9864195400000       8.972004229424776E-002 !mtd3
 C         -1.7610075661        0.6841887659       -0.0000377667
 C         -0.4751031608       -0.1185916438       -0.0000379824
 O         -0.4371398864       -1.3290522520        0.0000322776
 N          0.6387917021        0.6521910517        0.0001320440
 C          1.9699997208        0.0983147191       -0.0000742395
 H         -1.8073262872        1.3189508414       -0.8823320783
 H         -2.6062443837        0.0028410930       -0.0046962780
 H         -1.8112138540        1.3112498415        0.8874561779
 H          0.5484199607        1.6552485622       -0.0005244536
 H          1.8675756295       -0.9856650048       -0.0006447127
 H          2.5209530564        0.4093566779        0.8899063292
 H          2.5209656112        0.4102018097       -0.8897249709
  12
  -16.9864195400000       8.972004229424776E-002 !mtd4
 C         -1.7609947026        0.6841975544       -0.0002776632
 C         -0.4751038963       -0.1186134979        0.0001023026
 O         -0.4371894242       -1.3291009251        0.0001244654
 N          0.6387844413        0.6522357438        0.0006457743
 C          1.9700223402        0.0983286606       -0.0004021403
 H         -1.8077154354        1.3182759078        0.8824458705
 H         -1.8105289555        1.3120070551       -0.8873242983
 H         -2.6063572315        0.0029692391        0.0034513543
 H          0.5484584822        1.6552242668       -0.0007459471
 H          2.5214890730        0.4091932895        0.8893414377
 H          2.5206684911        0.4102623726       -0.8902840173
 H          1.8675884966       -0.9856071950       -0.0009524373
  12
  -16.9864195000000       8.971624472320548E-002 !mtd9
 C         -1.7611197710        0.6840958631        0.0002969533
 C         -0.4751216167       -0.1184720960       -0.0001506595
 O         -0.4370245249       -1.3289303132       -0.0001415304
 N          0.6387790266        0.6522606884       -0.0006672078
 C          1.9699798651        0.0981437397        0.0004200654
 H         -2.6061835066        0.0027067367       -0.0058184358
 H         -1.8120231234        1.3096966750        0.8887820395
 H         -1.8070338749        1.3201036704       -0.8809315910
 H          0.5489889745        1.6553434246        0.0008194365
 H          2.5222116452        0.4108209790       -0.8881807892
 H          1.8673912041       -0.9857714468       -0.0013121492
 H          2.5199170012        0.4081004018        0.8914110499
  12
  -16.9858490300000       4.905702721155120E-002 !mtd5
 C         -1.7702257114        0.6739910564        0.0002740955
 C         -0.4725604723       -0.1074108246       -0.0004752463
 O         -0.4344816952       -1.3190740669       -0.0000084808
 N          0.6450201077        0.6569057754       -0.0004063097
 C          1.9710558109        0.0895071150        0.0002672647
 H         -2.3358744447        0.4099940886        0.8909988038
 H         -1.6102731906        1.7479790250       -0.0231713774
 H         -2.3590992689        0.3743930110       -0.8635873013
 H          0.5694495229        1.6608429045       -0.0008443725
 H          2.5248117001        0.3950983762       -0.8897424328
 H          1.8579670950       -0.9933464640        0.0012887199
 H          2.5243617739        0.3965524825        0.8900511675
  12
  -16.9858485300000       4.903107813026678E-002 !mtd13
 C         -1.7702397259        0.6739676151       -0.0001024860
 C         -0.4725648359       -0.1074291922        0.0003609544
 O         -0.4345025347       -1.3190383802       -0.0000834296
 N          0.6450470740        0.6568966614        0.0000306519
 C          1.9710921328        0.0895128924       -0.0000294413
 H         -2.3542148593        0.3816413770        0.8696149057
 H         -1.6102690701        1.7481666643        0.0135636756
 H         -2.3409017848        0.4024284861       -0.8853633323
 H          0.5693815807        1.6608496345        0.0005228677
 H          2.5244292277        0.3954191147        0.8902150728
 H          2.5247568981        0.3964782313       -0.8896912401
 H          1.8579034190       -0.9934805355       -0.0006928372
  12
  -16.9858482300000       4.901551527049565E-002 !mtd8
 C         -1.7701900407        0.6739881054        0.0001816742
 C         -0.4726065335       -0.1074545739        0.0002108715
 O         -0.4345169993       -1.3190577333       -0.0001453685
 N          0.6449993200        0.6568716203       -0.0004762758
 C          1.9711074142        0.0895434599        0.0003394307
 H         -1.6101733980        1.7482546028        0.0128773060
 H         -2.3415209888        0.4017584181       -0.8844207458
 H         -2.3534765805        0.3824686908        0.8706193401
 H          0.5696549571        1.6609103242       -0.0003267749
 H          2.5218109526        0.3901237522        0.8940201897
 H          2.5272763245        0.4017521942       -0.8857786329
 H          1.8581300976       -0.9934157843       -0.0067871960
  12
  -16.9845802800000       1.281221146584525E-002 !gc
 C         -1.7669937969        0.6801461592        0.0007847213
 C         -0.4741319844       -0.1122071250       -0.0004453341
 O         -0.4213977657       -1.3219338401       -0.0003445684
 N          0.6363498535        0.6625634475       -0.0017436461
 C          1.9601841829        0.0803868879        0.0010919232
 H         -1.8285442419        1.2927334961        0.8977218770
 H         -1.8117382902        1.3283370148       -0.8716004178
 H         -2.6068170748       -0.0076045444       -0.0200998550
 H          0.5495928330        1.6644340669        0.0018816541
 H          2.0942735578       -0.5430945094        0.8873757605
 H          2.7056230871        0.8702927772       -0.0050932898
 H          2.0915177155       -0.5543212494       -0.8775414722
  12
  -16.9845799200000       1.280733158164100E-002 !gc
 C         -1.7671514686        0.6799906076        0.0008106419
 C         -0.4741312185       -0.1119999929       -0.0007796246
 O         -0.4211250843       -1.3217178939       -0.0002044123
 N          0.6363580033        0.6627031999       -0.0015314721
 C          1.9600409080        0.0800566527        0.0009971110
 H         -1.8304295729        1.2895485860        0.8997080723
 H         -1.8106698871        1.3312981785       -0.8693244159
 H         -2.6066563859       -0.0080105677       -0.0236942667
 H          0.5499521304        1.6645759890        0.0011047809
 H          2.0920160445       -0.5527311432       -0.8789292941
 H          2.0928648572       -0.5455665169        0.8859910284
 H          2.7059658117        0.8696131578       -0.0025803870
  12
  -16.9845798800000       1.280678948698055E-002 !gc
 C         -1.7671187777        0.6800456220        0.0005488114
 C         -0.4741684334       -0.1120295277       -0.0006350232
 O         -0.4211649890       -1.3217774152       -0.0001135640
 N          0.6363341933        0.6626417270       -0.0009925583
 C          1.9600866317        0.0801403929        0.0006423154
 H         -2.6066471240       -0.0079822779       -0.0223203522
 H         -1.8298381913        1.2911960867        0.8984088670
 H         -1.8111924439        1.3298641225       -0.8707082235
 H          0.5500330116        1.6645229448        0.0008580241
 H          2.7059183889        0.8697836633        0.0023497530
 H          2.0937513199       -0.5481624409       -0.8822605529
 H          2.0914913993       -0.5499968460        0.8826416887
  12
  -16.9840058400000       6.976373962382961E-003 !gc
 C         -1.7760316808        0.6701435786       -0.0000737630
 C         -0.4716576464       -0.1009750344        0.0004343695
 O         -0.4176886488       -1.3117658692       -0.0001507567
 N          0.6422854456        0.6675245064       -0.0001332812
 C          1.9602076627        0.0709371030        0.0000526885
 H         -1.6228905310        1.7452850736        0.0155209906
 H         -2.3438431252        0.3964720267       -0.8864583131
 H         -2.3589121352        0.3726899616        0.8685912502
 H          0.5707228016        1.6703285454        0.0016838061
 H          2.7138382707        0.8530134428       -0.0081611874
 H          2.0825202041       -0.5659024843       -0.8782564612
 H          2.0890442133       -0.5534994092        0.8864000460
