  12
        -16.98641960
 C         -1.7610356467        0.6841758545       -0.0000235095
 C         -0.4751346016       -0.1185687599        0.0000002550
 O         -0.4371395475       -1.3290549058        0.0000051528
 N          0.6387766203        0.6522047973        0.0000630067
 C          1.9700327547        0.0982921730       -0.0000358725
 H         -1.8096375579        1.3143186202        0.8854413817
 H         -1.8087288488        1.3159728163       -0.8843820727
 H         -2.6063711414        0.0028688678       -0.0010878350
 H          0.5486727226        1.6552564659       -0.0000348479
 H          1.8675917685       -0.9856582531       -0.0007963268
 H          2.5208861553        0.4090779474        0.8901302525
 H          2.5212364949        0.4103482986       -0.8895233394
