  20
        -27.11949173
 C         -1.8605804480       -1.4432510285       -0.4666060182
 C         -1.5134327111        0.0328124969       -0.2932190368
 C         -2.7696372568        0.8682076289       -0.0675154968
 C         -0.5506606028        0.2200278464        0.8836405400
 O          0.6862612943       -0.4585591819        0.6719197723
 C          1.6206076883        0.1803403315       -0.0390063233
 O          1.4924467682        1.2928451249       -0.4770499339
 C          2.8436263349       -0.6828037804       -0.2141273463
 H         -0.9558101990       -2.0368251148       -0.5735980312
 H         -2.4765782005       -1.5869412809       -1.3509144845
 H         -2.4097044541       -1.8059714994        0.4000319621
 H         -1.0065428607        0.3903837670       -1.1957837730
 H         -3.2747628406        0.5563765467        0.8443894716
 H         -3.4563675001        0.7437799734       -0.9008164937
 H         -2.5202712479        1.9228968934        0.0180991727
 H         -0.3477164144        1.2854997298        1.0341646384
 H         -0.9661078687       -0.2134364354        1.7960211689
 H          2.7880836020       -1.1681240198       -1.1868876729
 H          2.8823243722       -1.4421629927        0.5602119624
 H          3.7341600475       -0.0614941422       -0.1926420467
  20
        -27.11940511
 C         -1.8766529087       -1.4414772427       -0.4663346413
 C         -1.5170965742        0.0315964091       -0.2931204033
 C         -2.7658837294        0.8764443769       -0.0620089046
 C         -0.5479290048        0.2103905953        0.8799716375
 O          0.6869311014       -0.4683775004        0.6574440394
 C          1.6208607266        0.1780837518       -0.0479290281
 O          1.4870039338        1.2896852169       -0.4859546473
 C          2.8598012899       -0.6677950708       -0.1923489432
 H         -2.4226508981       -1.8015784023        0.4033741765
 H         -0.9770988071       -2.0415530547       -0.5803895551
 H         -2.4994205904       -1.5793003268       -1.3468488938
 H         -1.0108737393        0.3858516326       -1.1972826487
 H         -2.5083625625        1.9295682563        0.0186424799
 H         -3.2673490655        0.5710721117        0.8540918204
 H         -3.4588286874        0.7544410874       -0.8905515809
 H         -0.3436251220        1.2747772726        1.0362165725
 H         -0.9593560788       -0.2284428160        1.7916270329
 H          3.3676022083       -0.7162222703        0.7685034224
 H          3.5218294283       -0.2228953746       -0.9285818604
 H          2.5867499552       -1.6776421021       -0.4848923532
  20
        -27.11896636
 C         -1.4845297589       -1.3213079887        0.5097812377
 C         -1.7091071193       -0.1117850790       -0.3935437638
 C         -3.0139159348        0.5957777568       -0.0393311043
 C         -0.5459227583        0.8776063664       -0.2718003913
 O          0.6683396333        0.3056405341       -0.7550441101
 C          1.6282534611        0.0185876153        0.1292405445
 O          1.5519921810        0.2296869397        1.3105092157
 C          2.8247262084       -0.5845693166       -0.5616703115
 H         -0.5708376071       -1.8432453019        0.2342677629
 H         -2.3151053552       -2.0177349674        0.4228277845
 H         -1.3995222326       -1.0079500594        1.5480292518
 H         -1.7542615434       -0.4501581246       -1.4344273383
 H         -3.1851643916        1.4454235914       -0.6962033941
 H         -2.9825141898        0.9539404538        0.9871708843
 H         -3.8514256398       -0.0898733513       -0.1386017448
 H         -0.7340642908        1.7639744884       -0.8846501909
 H         -0.4053951138        1.1751419671        0.7725649408
 H          3.1662487672       -1.4509218856       -0.0015382800
 H          3.6282050753        0.1490343498       -0.5708173788
 H          2.5729797379       -0.8608368701       -1.5803450719
  20
        -27.11887893
 C         -2.9721924364       -0.4499365126        0.6316014479
 C         -1.6467203270       -0.5898448091       -0.1115417950
 C         -1.5618028775        0.4096960936       -1.2617685815
 C         -0.4892637676       -0.3845293026        0.8708700877
 O          0.7644999158       -0.6840008707        0.2600583618
 C          1.6008271466        0.3271777509        0.0040688679
 O          1.3849514651        1.4770475077        0.2796861626
 C          2.8524479495       -0.1823646385       -0.6642002669
 H         -3.8033813504       -0.6093195085       -0.0504058035
 H         -3.0629195350        0.5468400380        1.0572590026
 H         -3.0438582612       -1.1770313749        1.4371329763
 H         -1.5664483156       -1.6045759119       -0.5163863702
 H         -1.6070454061        1.4282873651       -0.8825807649
 H         -2.3857275434        0.2590185942       -1.9552465209
 H         -0.6291356959        0.2902042368       -1.8085293736
 H         -0.4708969904        0.6501793305        1.2285148060
 H         -0.5869813802       -1.0657443998        1.7211684991
 H          3.3438702968       -0.8986651073       -0.0106891260
 H          3.5186837642        0.6487305367       -0.8726336857
 H          2.5896069333       -0.6914435223       -1.5880094249
  20
        -27.11848242
 C         -1.5028071638       -0.5029377480       -1.3717860906
 C         -1.8294839966        0.2629485621       -0.0920790946
 C         -2.3833835126       -0.6746401717        0.9778705578
 C         -0.5915026721        1.0019639136        0.4305721561
 O          0.4646440523        0.0960717087        0.7446141888
 C          1.5312525241        0.0695270104       -0.0587652699
 O          1.6837122343        0.7844213363       -1.0136560718
 C          2.5168013469       -0.9752652193        0.3998217588
 H         -1.0579189386        0.1575987108       -2.1123568395
 H         -2.4060447415       -0.9387953303       -1.7917601350
 H         -0.8004361513       -1.3073740115       -1.1632765457
 H         -2.5777039014        1.0302589672       -0.3192833048
 H         -1.6276892248       -1.4024127146        1.2629103718
 H         -3.2539592037       -1.2060307224        0.6014683442
 H         -2.6757224643       -0.1160565677        1.8640426203
 H         -0.2290479272        1.7149749391       -0.3171877895
 H         -0.8284853596        1.5301228424        1.3584750018
 H          3.5122785180       -0.5407901638        0.4338798265
 H          2.5290977288       -1.7868938289       -0.3248176852
 H          2.2342847796       -1.3587455355        1.3748160633
  20
        -27.11838795
 C         -2.2132810214       -1.4811028655        0.1463923641
 C         -1.8227410872       -0.0763890038       -0.3063425208
 C         -1.6874294279        0.8644580186        0.8883781320
 C         -0.5216433128       -0.1157695153       -1.1174441233
 O          0.5719438145       -0.5840663865       -0.3305196073
 C          1.5018214626        0.2998507210        0.0426943821
 O          1.4981876638        1.4631762931       -0.2604832985
 C          2.5652757192       -0.3730827317        0.8730272957
 H         -3.1297944407       -1.4494581355        0.7303472601
 H         -1.4239786970       -1.9081427002        0.7600769983
 H         -2.3722752621       -2.1306116572       -0.7113332292
 H         -2.5966185877        0.3120917818       -0.9774906578
 H         -1.3651427209        1.8516138310        0.5656871143
 H         -0.9548397704        0.4788818928        1.5944080241
 H         -2.6401358907        0.9600513602        1.4033553774
 H         -0.6176635123       -0.8132091106       -1.9544171433
 H         -0.2782987876        0.8826047604       -1.4953466832
 H          3.1799443811       -0.9919539806        0.2228247758
 H          2.1048827869       -1.0147055003        1.6188851477
 H          3.1875492453        0.3789401168        1.3479060544
  20
        -27.11834999
 C         -2.9375797522       -0.4366661167        0.9261801733
 C         -1.7615760847       -0.5916774115       -0.0335954368
 C         -2.0329996480        0.1296729507       -1.3510590059
 C         -0.4903184825       -0.0505827862        0.6168316456
 O          0.6279461347       -0.3589465702       -0.2158550171
 C          1.7704482108        0.2793072328        0.0482323782
 O          1.9026448039        1.0727789775        0.9422724274
 C          2.8484819550       -0.1154654035       -0.9283120118
 H         -2.7552691216       -0.9747264493        1.8534054529
 H         -3.8449430390       -0.8283081397        0.4737016132
 H         -3.0966992664        0.6129435119        1.1634115757
 H         -1.6024331278       -1.6548044263       -0.2407314635
 H         -2.2112718799        1.1883599795       -1.1733599196
 H         -2.9083777244       -0.2906118835       -1.8401161851
 H         -1.1807283228        0.0277704284       -2.0179111065
 H         -0.5459291732        1.0356085802        0.7504303762
 H         -0.3289758266       -0.5056877275        1.6008683954
 H          2.5852374119       -1.0438622086       -1.4245129050
 H          3.7953069886       -0.2122177795       -0.4047682982
 H          2.9495528066        0.6738005480       -1.6709033786
  20
        -27.11831320
 C         -1.9830446639       -1.5009057320        0.3920656108
 C         -1.8058914029       -0.1898907350       -0.3691293388
 C         -3.0082482423        0.7272134392       -0.1656489318
 C         -0.5317111530        0.5190429485        0.0833852815
 O          0.5973793200       -0.2665989602       -0.3001664970
 C          1.7975036420        0.2037922057        0.0483020764
 O          1.9627217521        1.2338563427        0.6465289113
 C          2.8933191134       -0.7323389771       -0.3922445575
 H         -2.8558574981       -2.0366406780        0.0271515771
 H         -2.1161534909       -1.3066653509        1.4543486558
 H         -1.1080814719       -2.1319573228        0.2608242628
 H         -1.6996738063       -0.4138493080       -1.4354820753
 H         -3.1147325283        0.9843390987        0.8858852273
 H         -3.9181329995        0.2301156985       -0.4919215675
 H         -2.8952674739        1.6468961969       -0.7345923601
 H         -0.4440533989        1.5087378265       -0.3792012490
 H         -0.5200336102        0.6529525348        1.1710818312
 H          3.8131233064       -0.1743628482       -0.5385333572
 H          2.6030940727       -1.2468082666       -1.3029220585
 H          3.0542709198       -1.4708601736        0.3909149084
  20
        -27.11827558
 C         -1.9747710583       -1.4939030285        0.4094261095
 C         -1.8067035318       -0.1923465598       -0.3697539954
 C         -3.0094940302        0.7247641470       -0.1683244545
 C         -0.5313572465        0.5260732104        0.0640994689
 O          0.5980308041       -0.2613052179       -0.3146352119
 C          1.7960978426        0.1996317645        0.0542686125
 O          1.9580402551        1.2188347248        0.6712731896
 C          2.8932810614       -0.7279854473       -0.4006326740
 H         -1.0989828954       -2.1243118896        0.2802055150
 H         -2.8485037314       -2.0366619883        0.0572802971
 H         -2.1012476978       -1.2863572074        1.4699849464
 H         -1.7082900192       -0.4296063136       -1.4339526218
 H         -3.1029849372        1.0019889534        0.8792415251
 H         -3.9218751463        0.2186309893       -0.4727376878
 H         -2.9071510177        1.6334771173       -0.7564319772
 H         -0.4500420837        1.5089304730       -0.4141062472
 H         -0.5133229402        0.6765612020        1.1495386958
 H          2.8178497686       -1.6648176417        0.1466196257
 H          3.8591890853       -0.2708864767       -0.2105629729
 H          2.7767532874       -0.9417058267       -1.4595104683
  20
        -27.11772608
 C         -2.1356276395       -1.4321766860       -0.6210584885
 C         -1.9522680323        0.0384798421       -0.2552156457
 C         -2.1743280315        0.2604399266        1.2387967979
 C         -0.5617945706        0.5222133139       -0.6664877735
 O          0.4299418913       -0.2275412895        0.0353628103
 C          1.6770329636        0.2449472345        0.0000133755
 O          2.0000630849        1.2406682434       -0.5920892895
 C          2.6036120170       -0.6224139127        0.8134079169
 H         -3.1286393569       -1.7716699865       -0.3373527384
 H         -1.3984285809       -2.0380286924       -0.1010423205
 H         -2.0131179447       -1.5795078142       -1.6915941741
 H         -2.6755318451        0.6396998989       -0.8169584384
 H         -2.0671661292        1.3130599947        1.4908672399
 H         -1.4469591851       -0.3095559023        1.8110806845
 H         -3.1719269998       -0.0629600577        1.5250615936
 H         -0.4048665885        0.3877594328       -1.7429752019
 H         -0.4290255544        1.5851024342       -0.4353730526
 H          2.2914798823       -1.6606611480        0.7565562276
 H          2.5574159513       -0.3007262266        1.8522209257
 H          3.6218938515       -0.5049490730        0.4558664537
  20
        -27.11661316
 C         -1.9276733113       -1.0059742955       -1.0616056452
 C         -1.5073664327        0.1954723789       -0.2184955373
 C         -2.7268893860        0.9125697633        0.3554792816
 C         -0.5388625461       -0.2326215220        0.9022284267
 O          0.7146661350        0.4457697112        0.8169276932
 C          1.6184941212       -0.0476048508       -0.0352187406
 O          1.4474992722       -1.0324614444       -0.7040438923
 C          2.8682730551        0.7944795155       -0.0406729063
 H         -1.0510632354       -1.4997771090       -1.4730732571
 H         -2.5647035412       -0.6870571981       -1.8832088081
 H         -2.4804501761       -1.7197906305       -0.4543937732
 H         -0.9667974366        0.8971666863       -0.8634247855
 H         -2.4252059011        1.7811019449        0.9362612837
 H         -3.2926018411        0.2418877820        0.9989638891
 H         -3.3789675816        1.2466714988       -0.4479875625
 H         -0.9306540064        0.0284543592        1.8867495428
 H         -0.3536765485       -1.3102262897        0.8555342754
 H          2.8779512424        1.4591449694        0.8169420096
 H          2.8868371157        1.3831171315       -0.9558989418
 H          3.7413410874        0.1478397583       -0.0371310959
  20
        -27.11424109
 C         -1.3575898392       -1.2685073750        0.7106198318
 C         -1.7609567359       -0.1972260379       -0.3010266766
 C         -2.4092877093        0.9845069625        0.4169753581
 C         -0.5564243021        0.2924685739       -1.1448817461
 O          0.6632031091       -0.3861667245       -0.8561794409
 C          1.4470906387        0.1307091119        0.0945427506
 O          1.2016395235        1.1402150135        0.7005538738
 C          2.6745488995       -0.7200531205        0.2969277363
 H         -0.8659333042       -2.1029822484        0.2159200686
 H         -2.2424918540       -1.6406062162        1.2213362811
 H         -0.6821768868       -0.8548774181        1.4565532035
 H         -2.4941800115       -0.6383030712       -0.9843732840
 H         -2.7505739310        1.7292272569       -0.2986848131
 H         -1.6922267481        1.4502607197        1.0891010141
 H         -3.2649840982        0.6501250055        0.9989116941
 H         -0.7294848840        0.1149950347       -2.2081175027
 H         -0.3978836781        1.3625688665       -0.9769232651
 H          3.5523203676       -0.0818311735        0.3503953914
 H          2.7713786538       -1.4388008661       -0.5100538804
 H          2.5819831483       -1.2470062221        1.2445301120
  20
        -27.11375449
 C         -2.8481362823       -1.0133671817       -0.1719800864
 C         -1.6704688507       -0.0627591681       -0.3781545778
 C         -1.5120525679        0.8503668319        0.8359867453
 C         -0.3811599327       -0.8714385908       -0.6714602877
 O          0.6662938357       -0.6451394619        0.2678929466
 C          1.5519540749        0.3160002392       -0.0092263933
 O          1.5281617510        0.9925209721       -1.0032744175
 C          2.5896733969        0.4168442903        1.0795255958
 H         -2.9826923666       -1.6538026578       -1.0408035442
 H         -3.7650575252       -0.4493848060       -0.0187168478
 H         -2.6803974501       -1.6404442545        0.7009647981
 H         -1.8805572464        0.5669215090       -1.2481200065
 H         -0.7307451091        1.5876715395        0.6665288000
 H         -1.2607823886        0.2706308404        1.7213624196
 H         -2.4439171515        1.3797928558        1.0191572399
 H         -0.5834208611       -1.9429185835       -0.6093135295
 H         -0.0026226613       -0.6308382669       -1.6696625235
 H          2.6884935322        1.4543225322        1.3882283770
 H          3.5484894412        0.0920644451        0.6813370885
 H          2.3119629548       -0.2063982221        1.9231152684
