! pbe def2-sv(p) def2/J RI DEFGRID1 loosescf d4 GCP(DFT/SV(P)) printgap
%output
    printlevel normal
end
* xyz 0 1
C -1.0439839878 -0.5521014053 -0.1892965705
C 0.0269395411 0.261663416 0.5515182417
C 1.385731719 -0.4591570789 0.5999642129
O 1.8628613038 -0.9010981206 -0.6464349832
O 0.1994268699 1.5254454434 -0.0544745259
O -2.2945458373 0.0988084779 -0.1645262124
H -1.1141650723 -1.5580379127 0.2404192899
H -0.7760466162 -0.6219975435 -1.2461364462
H -0.294713514 0.4104437224 1.5976151729
H 1.3186421965 -1.2916956884 1.3103743751
H 2.1271762669 0.2576457377 0.9592320653
H 1.3444100835 -1.6593562745 -0.9471638809
H -0.6638113356 1.8260707288 -0.3787270341
H -2.6481020445 0.0902754733 0.7362422201
*
