  22
  -51.0204745600000       0.500037036818689      !md1
 C         -4.0822787872        0.0002820048        0.0000154545
 C         -3.3974744186       -0.9358857484       -0.7547776758
 C         -2.0122660032       -0.9299840868       -0.7502319681
 C         -1.2973492086       -0.0000051808        0.0000382213
 C         -2.0121002640        0.9300784431        0.7503815045
 C         -3.3973046288        0.9362292202        0.7549119049
 Cl        -1.1425057626        2.0810935470        1.6962672993
 C          0.1819763220       -0.0000227428       -0.0000079243
 C          0.8989423366       -0.9298940916        0.7494268627
 C          2.2841197774       -0.9407530644        0.7579063431
 C          2.9641046146        0.0000455814       -0.0000489325
 C          2.2840595733        0.9408154742       -0.7579922599
 C          0.8988868276        0.9298789554       -0.7494663187
 Cl         0.0382734588        2.0818779564       -1.6946509107
 Cl         4.6837103225        0.0000292739       -0.0000870676
 Cl         0.0384384070       -2.0820583373        1.6944798190
 Cl        -1.1429069237       -2.0812347512       -1.6960623783
 H         -5.1610330480        0.0004472636       -0.0000375162
 H         -3.9268217047       -1.6662568525       -1.3450673621
 H         -3.9265293116        1.6666439476        1.3452236452
 H          2.8200059444       -1.6680896976        1.3453363164
 H          2.8198845734        1.6681854953       -1.3454320541
  22
  -51.0204744200000       0.499962963181311      !mtd11
 C         -4.0821788538        0.0028242021       -0.0033903108
 C         -3.3967525292       -0.7557378526       -0.9360808788
 C         -2.0115833273       -0.7527232486       -0.9278811151
 C         -1.2974117831       -0.0004026526        0.0009953764
 C         -2.0126823639        0.7529922165        0.9280709290
 C         -3.3978963513        0.7592448940        0.9318448839
 Cl        -1.1435245085        1.7004798688        2.0781431329
 C          0.1819743656       -0.0003278627        0.0011311806
 C          0.8997055068       -0.7534852520        0.9272615873
 C          2.2849522661       -0.7619601041        0.9368044283
 C          2.9640174149       -0.0000412056       -0.0014080293
 C          2.2831236659        0.7619448775       -0.9382534507
 C          0.8979962482        0.7531769010       -0.9261771323
 Cl         0.0360016806        1.7027408884       -2.0735302616
 Cl         4.6835594100       -0.0001058247       -0.0033670414
 Cl         0.0399725804       -1.7028006682        2.0765131481
 Cl        -1.1409704567       -1.7024367325       -2.0749691404
 H         -5.1609431821        0.0043830933       -0.0053761290
 H         -3.9256858471       -1.3475590287       -1.6655497291
 H         -3.9277304306        1.3522734232        1.6596173188
 H          2.8213041354       -1.3526493210        1.6611771421
 H          2.8181527978        1.3526086485       -1.6635999532
