! r2scan-3c def2/J RI DEFGRID2 scfconv6 printgap
%output
    printlevel normal
end
* xyz 0 1
C 3.0729812215 -0.4562968405 1.2780452345
C 2.5956659542 0.013124049 -0.0632895273
C 3.4395616169 0.2389079997 -1.0588740474
C 1.1102517474 0.2045712329 -0.2517907762
H 0.9531421511 0.6892455392 -1.2210274123
C 0.365020963 -1.1369447656 -0.2810942842
C -1.0749201527 -0.9098131696 -0.7284739087
C -1.7165088818 0.2071816002 0.0450934941
C -0.9994022262 1.1008814658 0.7451408183
C 0.4824189202 1.0891110567 0.8303257769
C -3.1631838961 0.2987284064 0.0225244365
O -3.9135698163 -0.4634075795 -0.5612443785
H 4.1021049532 -0.7988443362 1.2149836692
H 3.0331157192 0.357503125 2.0007678526
H 2.4555798963 -1.2714688224 1.6473780302
H 3.107337551 0.5856977891 -2.0229892973
H 4.5002305254 0.0854748064 -0.952533122
H 0.8621716254 -1.8259913571 -0.9648499722
H 0.3663028504 -1.5824413324 0.7144875794
H -1.107278988 -0.6604096001 -1.7932063809
H -1.6740479905 -1.8141902113 -0.5995461981
H -1.5107170901 1.8748708482 1.3020934689
H 0.8630866118 2.1100307855 0.7558501793
H 0.7540022804 0.7204416635 1.8237912174
H -3.581788719 1.1467959021 0.5974028563
*
