  14
        -22.68187449
 C         -1.2858131852        0.0095135148        0.6494489965
 C          0.0332677741        0.7993985385        0.5076221849
 C          1.2462860617       -0.1281012106        0.6917598537
 O          1.3668816660       -0.9918200968       -0.4108891790
 O          0.0916382979        1.3936293696       -0.7706509661
 O         -1.4328183728       -0.9389965536       -0.3851444436
 H         -2.1279091254        0.7118565761        0.6460174788
 H         -1.2931911848       -0.5480681515        1.5877287523
 H          0.0488942684        1.5987985005        1.2562674524
 H          1.1547155291       -0.6842569000        1.6332447303
 H          2.1661932535        0.4618218451        0.7173529824
 H          0.5406657770       -1.4992416544       -0.4727435842
 H          0.6540812630        0.8197721877       -1.3150405994
 H         -1.4768449502       -0.4464993020       -1.2155379525
