  21
        -26.47654482
 C          3.4827518288        0.8530303143       -0.1517349834
 C          2.5288423780       -0.3222283083       -0.3244090779
 C          1.1655008029       -0.0397423282        0.3017050992
 C          0.2068058085       -1.2171770146        0.1418164747
 C         -1.1657275083       -0.9232135240        0.7566856076
 C         -1.8511726930        0.2378884063        0.0579416972
 O         -1.9964563887        1.3336462023        0.5485616049
 N         -2.2917698480       -0.0545859463       -1.1898607080
 H          3.0730393915        1.7464384067       -0.6175853750
 H          4.4456874483        0.6367273133       -0.6088366530
 H          3.6421025359        1.0618903509        0.9036958022
 H          2.9617305843       -1.2126782840        0.1381965915
 H          2.4018972580       -0.5323307193       -1.3893712554
 H          0.7294865735        0.8476208213       -0.1614105974
 H          1.2933189657        0.1769598994        1.3641957430
 H          0.6307266118       -2.0980719828        0.6303083078
 H          0.0959793756       -1.4509946258       -0.9203667467
 H         -1.0461208108       -0.6590019718        1.8076804607
 H         -1.8017716540       -1.8082313590        0.6870421663
 H         -2.7440691111        0.6651579277       -1.7280469134
 H         -2.1826593494       -0.9652456264       -1.5970130157
