! pbe def2-sv(p) def2/J RI DEFGRID1 loosescf d4 GCP(DFT/SV(P)) printgap
%output
    printlevel normal
end
* xyz 0 1
C 1.7915744574 -1.0740042569 0.5191703703
C 1.3228935334 0.3566221016 0.7668232654
C 0.1777058965 0.8802991665 -0.1193463184
H -0.0197529659 1.9075912541 0.2184961709
C -1.178454482 0.1318224833 -0.0501881621
C -1.2363510928 -1.1532028719 -0.8772449429
C -1.5994217575 -0.1302471775 1.3934923781
O 0.6036936623 1.0492957841 -1.4610127943
H 1.0636236252 -1.7977842759 0.8738189954
H 2.7197231425 -1.2438862434 1.0605464031
H 1.9844928791 -1.2555045596 -0.5354675704
H 1.0274940784 0.4659098208 1.8100056082
H 2.1649363422 1.0323038262 0.5932414055
H -1.9060862132 0.8224210408 -0.4953509007
H -2.2474195722 -1.5530063653 -0.8403250903
H -0.9986516897 -0.9485132522 -1.9183280199
H -0.559907535 -1.9123943655 -0.4996842862
H -2.6267635808 -0.4856576441 1.4181749309
H -1.5387924696 0.7821576926 1.9820560178
H -0.9684933938 -0.8854747456 1.8534409911
H 0.9271744421 0.1976434597 -1.7852449084
*
