! pbe def2-sv(p) def2/J RI DEFGRID1 loosescf d4 GCP(DFT/SV(P)) printgap
%output
    printlevel normal
end
* xyz 0 1
C -2.272560058 -0.2355102088 0.1500091619
O -0.9733917237 -0.2130683435 -0.3993421435
C -0.0934381518 0.6456324274 0.2971452003
C 1.3028886049 0.5141222047 -0.301008156
O 1.9280727407 -0.6286365858 0.2428532548
H -2.254007519 -0.5951954618 1.1845456904
H -2.8512918343 -0.9175353867 -0.4673154828
H -2.7231086068 0.7631408109 0.1259239674
H -0.4425581344 1.6849116964 0.211093953
H -0.0544109486 0.3678266228 1.3595275827
H 1.8814067531 1.4143432097 -0.0563481739
H 1.2015323013 0.4255666082 -1.38823368
H 2.7565781179 -0.7957749758 -0.2266843285
*
