  21
        -22.09968228
 C         -3.1458500574        0.8924003439        0.0738989482
 C         -2.2306251876       -0.2862566716       -0.2338942041
 C         -0.7953700410       -0.0226890836        0.2144124052
 C          0.1272073443       -1.1999700652       -0.0898705284
 C          1.5702456087       -0.9234328506        0.3442671069
 C          2.1780160584        0.1976808556       -0.4359526200
 C          2.6795304527        1.2976497562        0.0927142870
 H         -2.7950092252        1.7890084443       -0.4325896265
 H         -3.1656753581        1.0905459403        1.1434598976
 H         -4.1616281263        0.6865238717       -0.2559206167
 H         -2.2423677218       -0.4830483256       -1.3085939216
 H         -2.6080194869       -1.1799154195        0.2692159519
 H         -0.4156032401        0.8696917092       -0.2884772262
 H         -0.7838353473        0.1752134651        1.2890111206
 H         -0.2387506262       -2.0898829304        0.4278106958
 H          0.1069156529       -1.4082318199       -1.1624280376
 H          2.1644423896       -1.8278615702        0.1804297958
 H          1.5951798623       -0.6899839753        1.4104925378
 H          2.1837774681        0.0584478048       -1.5100162752
 H          3.1103632361        2.0791050604       -0.5102722184
 H          2.6842170389        1.4620906700        1.1581110131
