  20
        -19.99383790
 C          3.1822213804       -0.2222978667       -0.0007177024
 C          1.8685381379        0.5497661035        0.0001064589
 C          0.6600321672       -0.3833146146        0.0006639208
 C         -0.6600571414        0.3833344110        0.0007023463
 C         -1.8685369545       -0.5497711347        0.0001240123
 C         -3.1822037365        0.2222883944       -0.0007425867
 H          3.2514853102       -0.8561160176       -0.8822716568
 H          3.2528108507       -0.8556967984        0.8810165411
 H          4.0289319802        0.4603327182       -0.0015275548
 H          1.8258616617        1.1938631092       -0.8813496427
 H          1.8267735406        1.1938452950        0.8816227430
 H          0.7032610075       -1.0277036641        0.8822136698
 H          0.7028692884       -1.0280590825       -0.8806508337
 H         -0.7029167088        1.0281934217       -0.8805295287
 H         -0.7032727104        1.0276033765        0.8823395479
 H         -1.8257920778       -1.1939063392       -0.8813038973
 H         -1.8268507243       -1.1937753392        0.8816877381
 H         -3.2519554716        0.8551255718       -0.8829713416
 H         -4.0288658881       -0.4604062437       -0.0002857918
 H         -3.2522668067        0.8566369176        0.8803839608
