! r2scan-3c def2/J RI DEFGRID2 scfconv6 printgap
%output
    printlevel normal
end
%cpcm
    smd true
    smdsolvent "water"
end
* xyz 0 1
C -1.0077243934 -0.5873439167 -0.1181962425
C 0.0418398475 0.2974085159 0.5665192277
C 1.4080788346 -0.3954205789 0.6104288104
O 1.7019415835 -0.9574838725 -0.6484294776
O 0.1690429891 1.5328591926 -0.1046472928
O -2.2524234238 0.0668369494 -0.2072824126
H -1.0894089689 -1.5420380977 0.4114207727
H -0.6875393043 -0.7795278494 -1.1440796615
H -0.2668385186 0.4953513009 1.6080730729
H 1.3804924371 -1.1775948395 1.3809981984
H 2.1511162726 0.361019416 0.8864339756
H 2.6232055376 -1.2503096288 -0.6587019263
H -0.6799471473 1.7302352772 -0.530696714
H -2.6456017809 0.1355781214 0.674471867
*
