  20
        -27.10715188
 C         -2.8132322648        0.0663533108        0.7131168278
 C         -1.3739200866       -0.1770860126        0.2619889656
 C         -1.3077077464       -1.4002282866       -0.6497127480
 C         -0.8424788973        1.0838236217       -0.4310671162
 C          0.6374184783        1.0220704930       -0.8010219607
 O          1.4537710143        0.9232888326        0.3733484967
 C          2.0616522413       -0.2207076689        0.6084096381
 O          2.0435881607       -1.2080786131       -0.0668151563
 H         -2.8716465146        0.9245086229        1.3790414730
 H         -3.1978864786       -0.8025849021        1.2413068116
 H         -3.4517506660        0.2545922961       -0.1474981197
 H         -0.7623529596       -0.3698641205        1.1509128881
 H         -0.2792433485       -1.6857798684       -0.8528733899
 H         -1.8121183670       -1.2004878359       -1.5931545929
 H         -1.7971820124       -2.2458468022       -0.1722662741
 H         -0.9925856115        1.9406752485        0.2293113513
 H         -1.4075152783        1.2590612488       -1.3487105914
 H          0.8502387643        0.1698053077       -1.4513863425
 H          0.9377345852        1.9474097245       -1.3001745886
 H          2.6239664590       -0.1303284433        1.5542187762
