! r2scan-3c def2/J RI DEFGRID2 scfconv6 printgap
%output
    printlevel normal
end
%cpcm
    smd true
    smdsolvent "water"
end
* xyz 0 1
C -2.0442973848 1.1928677127 0.7474547581
C -1.9466755888 -0.0200847289 -0.1670583752
C -0.5443726712 -0.5309834238 -0.3805363953
O -0.2722696647 -1.4256716283 -1.1603066251
O 0.3531925379 0.085054388 0.368202294
C 1.7350598739 -0.2957759884 0.2638499
C 2.5958190297 0.9544649991 0.3063540461
H -3.0836709119 1.4927868629 0.8446174569
H -1.6520982745 0.9610629181 1.733407636
H -1.47662504 2.024978451 0.34091395
H -2.3588264332 0.1976049023 -1.1545673639
H -2.5236380687 -0.8552334362 0.2375771928
H 1.9541014734 -0.9528484209 1.1105875747
H 1.8729565634 -0.8550667497 -0.6670039851
H 3.6420058794 0.6694658327 0.2678196066
H 2.3710119027 1.5971741548 -0.5402427872
H 2.406814472 1.5032913308 1.2240096087
*
