  29
        -29.49182231
 C         -2.6007323431        1.3905577576        0.1118950728
 C         -2.1783881168        0.0023504334       -0.3634559406
 C         -3.2240554699       -1.0286527980        0.0597537003
 C         -0.8036487794       -0.3974440230        0.1862950373
 C          0.3328278714        0.4657013881       -0.3598155285
 C          1.7560628752       -0.0039647494       -0.0044980974
 C          1.9360072425       -0.1053473851        1.5116773643
 C          2.0674851270       -1.3571605920       -0.6480593637
 C          2.7422431374        1.0350275486       -0.5507842078
 H         -1.9260934661        2.1561923914       -0.2613575628
 H         -2.6053852922        1.4326662193        1.1993064682
 H         -3.6026286886        1.6223854461       -0.2433692284
 H         -2.1253819372        0.0106122605       -1.4584585239
 H         -2.9573762324       -2.0199054409       -0.3005753714
 H         -3.2994665963       -1.0671919278        1.1446694777
 H         -4.2015316780       -0.7709245442       -0.3420082716
 H         -0.8310398149       -0.3299039745        1.2751644501
 H         -0.6248144708       -1.4402562978       -0.0808109105
 H          0.2143033075        1.4847363618        0.0135784238
 H          0.2480863298        0.5035446656       -1.4492664481
 H          1.3265839592       -0.9048091699        1.9245221018
 H          2.9759945073       -0.3154988664        1.7528698734
 H          1.6558624163        0.8288915005        1.9935634876
 H          3.1061813169       -1.6269100574       -0.4689591460
 H          1.4420836402       -2.1439786915       -0.2345785013
 H          1.9054919409       -1.3162624015       -1.7230299428
 H          2.6321401924        1.1387742962       -1.6281581336
 H          3.7672390408        0.7379548366       -0.3396603201
 H          2.5684445053        2.0071611933       -0.0942768551
