  29
        -29.49182231
 C         -2.6007323431        1.3905577576        0.1118950728
 C         -2.1783881168        0.0023504334       -0.3634559406
 C         -3.2240554699       -1.0286527980        0.0597537003
 C         -0.8036487794       -0.3974440230        0.1862950373
 C          0.3328278714        0.4657013881       -0.3598155285
 C          1.7560628752       -0.0039647494       -0.0044980974
 C          1.9360072425       -0.1053473851        1.5116773643
 C          2.0674851270       -1.3571605920       -0.6480593637
 C          2.7422431374        1.0350275486       -0.5507842078
 H         -1.9260934661        2.1561923914       -0.2613575628
 H         -2.6053852922        1.4326662193        1.1993064682
 H         -3.6026286886        1.6223854461       -0.2433692284
 H         -2.1253819372        0.0106122605       -1.4584585239
 H         -2.9573762324       -2.0199054409       -0.3005753714
 H         -3.2994665963       -1.0671919278        1.1446694777
 H         -4.2015316780       -0.7709245442       -0.3420082716
 H         -0.8310398149       -0.3299039745        1.2751644501
 H         -0.6248144708       -1.4402562978       -0.0808109105
 H          0.2143033075        1.4847363618        0.0135784238
 H          0.2480863298        0.5035446656       -1.4492664481
 H          1.3265839592       -0.9048091699        1.9245221018
 H          2.9759945073       -0.3154988664        1.7528698734
 H          1.6558624163        0.8288915005        1.9935634876
 H          3.1061813169       -1.6269100574       -0.4689591460
 H          1.4420836402       -2.1439786915       -0.2345785013
 H          1.9054919409       -1.3162624015       -1.7230299428
 H          2.6321401924        1.1387742962       -1.6281581336
 H          3.7672390408        0.7379548366       -0.3396603201
 H          2.5684445053        2.0071611933       -0.0942768551
  29
        -29.49174131
 C         -2.6968055020       -0.2730614262        1.1465066278
 C         -2.1774119335        0.3674849022       -0.1386237913
 C         -3.1355133475        0.0607796404       -1.2890439898
 C         -0.7662922006       -0.1224359268       -0.4887353582
 C          0.3057201084        0.4418224108        0.4420601500
 C          1.7505736088        0.0000520903        0.1434173297
 C          2.6707343841        0.6975790335        1.1520448762
 C          1.9026384257       -1.5141542370        0.3055638354
 C          2.1740639849        0.4076215321       -1.2695378479
 H         -2.7261394306       -1.3560178790        1.0431516349
 H         -3.7037593370        0.0769204282        1.3636706830
 H         -2.0644948432       -0.0249400357        1.9947112010
 H         -2.1436094601        1.4541306025        0.0018965246
 H         -2.8100938551        0.5508187003       -2.2041633062
 H         -3.1775230764       -1.0114081671       -1.4703992674
 H         -4.1395794710        0.4076080761       -1.0546341660
 H         -0.7581650242       -1.2128250539       -0.4531121634
 H         -0.5446600521        0.1822060394       -1.5128419548
 H          0.0751120274        0.1532802897        1.4694330540
 H          0.2637599203        1.5333590603        0.3924936530
 H          2.5981040194        1.7786522437        1.0537529633
 H          2.3988816910        0.4280022261        2.1704048068
 H          3.7067997011        0.4092389115        0.9881434526
 H          1.3354551203       -2.0482658244       -0.4520515013
 H          2.9478608505       -1.7991954445        0.2055137919
 H          1.5544713276       -1.8311440398        1.2862388768
 H          3.2324569939        0.2026889474       -1.4165806845
 H          2.0067556023        1.4707998162       -1.4281084162
 H          1.6181806491       -0.1467036201       -2.0210375379
  29
        -29.49056520
 C         -2.6165686321        0.4376271976       -1.3532347892
 C         -2.2850694359       -0.3287122584       -0.0742158240
 C         -2.7048005895        0.4786410921        1.1525654540
 C         -0.8089018403       -0.7529451249       -0.0152566311
 C          0.1844896153        0.4074503035        0.0090649133
 C          1.6708217376        0.0053090479        0.0579690708
 C          1.9823181869       -0.8065288002        1.3173309393
 C          2.0656491146       -0.8019196239       -1.1808275340
 C          2.5006508672        1.2944268826        0.0878368949
 H         -3.6915145512        0.5845935553       -1.4347171524
 H         -2.2791957661       -0.1123785556       -2.2290728660
 H         -2.1433519309        1.4163056754       -1.3542689931
 H         -2.8729803310       -1.2555301560       -0.0798993093
 H         -2.4292837670       -0.0414489977        2.0674362483
 H         -2.2325876652        1.4577836905        1.1539599427
 H         -3.7827875143        0.6258836082        1.1541775349
 H         -0.6727082002       -1.3638904988        0.8789806070
 H         -0.6079170212       -1.3833605210       -0.8833662557
 H         -0.0207997164        1.0306354837        0.8813409201
 H          0.0346826639        1.0210068479       -0.8811178196
 H          3.0544403188       -0.9725751187        1.4003283938
 H          1.6490085029       -0.2765154278        2.2070447759
 H          1.4944380969       -1.7772675230        1.2893462259
 H          3.1402196255       -0.9725282308       -1.1899712830
 H          1.5729358687       -1.7705489165       -1.1920418355
 H          1.7972123331       -0.2661313932       -2.0888226572
 H          3.5635722326        1.0651237187        0.1212723262
 H          2.2530998165        1.8902948538        0.9638417139
 H          2.3094999740        1.8948217125       -0.7991379722
  29
        -29.48922460
 C         -2.7544637721       -0.4697909179       -1.0012630378
 C         -1.9122643261       -0.1152313688        0.2222505154
 C         -2.8000386455        0.5155411797        1.2937636823
 C         -0.7725808961        0.8426490528       -0.1506553507
 C          0.3867537677        0.1745325707       -0.9040847340
 C          1.6441754277       -0.1440618640       -0.0719614046
 C          1.3077682125       -1.0192629522        1.1363491524
 C          2.6233076608       -0.9057619798       -0.9728791389
 C          2.3222177864        1.1447342082        0.3996372135
 H         -2.1422714941       -0.9038006389       -1.7879973572
 H         -3.2369102265        0.4215256641       -1.3979537626
 H         -3.5275277080       -1.1883318797       -0.7370701235
 H         -1.4836573721       -1.0364177215        0.6282532941
 H         -2.2312051115        0.7162033891        2.1994354871
 H         -3.2163226556        1.4551968224        0.9357057259
 H         -3.6233646859       -0.1482132956        1.5486899909
 H         -1.1922240062        1.6410361707       -0.7669109163
 H         -0.3974612622        1.3121492638        0.7588483201
 H          0.6970926929        0.8215095416       -1.7277630669
 H          0.0318863843       -0.7573286810       -1.3483644755
 H          2.2163308704       -1.2726420250        1.6792234794
 H          0.6385309414       -0.5050268219        1.8205508458
 H          0.8342214203       -1.9452033226        0.8171555836
 H          3.5398480420       -1.1343902768       -0.4334018781
 H          2.1854262974       -1.8421849844       -1.3121584553
 H          2.8814145027       -0.3128170635       -1.8477588955
 H          3.2405014408        0.9125208304        0.9349104290
 H          1.6789560932        1.7108858822        1.0682700858
 H          2.5719643206        1.7770952221       -0.4496080517
  29
        -29.48906960
 C         -2.8044220174        1.5346157557        0.2529724632
 C         -1.9446094806        0.4056351887       -0.3125980770
 C         -2.8203423185       -0.8061504675       -0.6220869389
 C         -0.8279651860        0.0442640947        0.6744426041
 C          0.2659110431       -0.8465838940        0.0638127249
 C          1.6774231084       -0.2322076075        0.0112305277
 C          2.1957890832        0.0649749587        1.4199783959
 C          2.6131673494       -1.2526300998       -0.6468878420
 C          1.6814720868        1.0467160989       -0.8286396772
 H         -3.2506880004        1.2332937632        1.1986890230
 H         -3.6055037657        1.7888361159       -0.4376360844
 H         -2.2066564629        2.4272747603        0.4253636317
 H         -1.4852926251        0.7556290417       -1.2437898757
 H         -3.3221005608       -1.1472011309        0.2814168594
 H         -3.5789268332       -0.5510868112       -1.3591443748
 H         -2.2278540903       -1.6291604310       -1.0136980112
 H         -0.3890960075        0.9708798737        1.0440065537
 H         -1.2775131182       -0.4566453042        1.5342837288
 H         -0.0156051429       -1.1073033338       -0.9584492120
 H          0.3293488300       -1.7814043235        0.6245742788
 H          1.5822166142        0.8088678391        1.9211370080
 H          2.1944326882       -0.8400686203        2.0235699644
 H          3.2145175231        0.4442206871        1.3741940695
 H          2.2808577329       -1.4844692199       -1.6566107565
 H          3.6262556568       -0.8604175985       -0.7033166368
 H          2.6370474518       -2.1775268471       -0.0744886152
 H          2.6900593238        1.4490114516       -0.8972980469
 H          1.0432149920        1.8101443907       -0.3921517535
 H          1.3272301543        0.8400780635       -1.8363255618
  29
        -29.48800072
 C         -2.1969079427       -0.0966111988        1.3679518956
 C         -1.7570168003        0.4337165682        0.0061966218
 C         -2.9859301729        0.8069084313       -0.8236448126
 C         -0.9233823054       -0.5929429660       -0.7681140578
 C          0.3763695781       -1.0932125468       -0.1271086323
 C          1.5582663868       -0.1112418322        0.0297766038
 C          1.4350171588        0.7295000505        1.3036161450
 C          2.8385681140       -0.9501138003        0.1474344128
 C          1.6925123859        0.8118616605       -1.1824992832
 H         -2.8452792814        0.6241157246        1.8621789037
 H         -1.3430191215       -0.2795343746        2.0138146536
 H         -2.7479358218       -1.0276536848        1.2499037811
 H         -1.1683197969        1.3435762150        0.1545472982
 H         -3.5810912243        1.5588534938       -0.3099155354
 H         -2.6915890289        1.2070502208       -1.7917200467
 H         -3.6109664757       -0.0680411989       -0.9911827401
 H         -1.5549277306       -1.4724936122       -0.9280970293
 H         -0.6978040440       -0.1824744967       -1.7538513259
 H          0.7226808087       -1.9148324250       -0.7608551220
 H          0.1544037767       -1.5235142072        0.8509614187
 H          0.5594868982        1.3699244690        1.2799580804
 H          1.3679553168        0.0873000356        2.1795582922
 H          2.3121760656        1.3640446605        1.4169694047
 H          3.6991615578       -0.3108796868        0.3328943685
 H          2.7569546862       -1.6587353454        0.9690804295
 H          3.0208017392       -1.5077625223       -0.7688345068
 H          2.6078841099        1.3952913663       -1.1054861010
 H          0.8569479701        1.5036767738       -1.2447468184
 H          1.7356403377        0.2325500440       -2.1023412274
  29
        -29.48765765
 C         -2.8685695362        1.0214694149       -1.0141025328
 C         -1.7995678343        0.0693693783       -0.4764572962
 C         -2.4680145633       -1.0946512921        0.2503024178
 C         -0.8503130680        0.8515963579        0.4394638743
 C          0.3433946778        0.0972105642        1.0369787352
 C          1.5850584465       -0.1555756342        0.1567847610
 C          2.6887619612       -0.6849466790        1.0831125243
 C          1.3323514257       -1.2063309907       -0.9266618613
 C          2.0770776887        1.1375628843       -0.4969147402
 H         -2.4131723871        1.8473072031       -1.5568395633
 H         -3.4564979406        1.4333026279       -0.1960962648
 H         -3.5422120881        0.4992555847       -1.6900901407
 H         -1.2453444966       -0.3286449365       -1.3292612416
 H         -2.9877363150       -0.7398944049        1.1382604270
 H         -3.1932773599       -1.5779146984       -0.4010585945
 H         -1.7397367962       -1.8425189701        0.5520479907
 H         -0.4873144923        1.7272748050       -0.1002612744
 H         -1.4475301670        1.2226953760        1.2781140465
 H          0.0027303448       -0.8609784096        1.4324386804
 H          0.6839968546        0.6872274812        1.8928969299
 H          2.3685520682       -1.6007357327        1.5756323004
 H          3.5927628471       -0.9006005613        0.5175864009
 H          2.9344894859        0.0472685874        1.8493403122
 H          2.2739859855       -1.4966640877       -1.3892022889
 H          0.8733964130       -2.0966741129       -0.5030179788
 H          0.6860256962       -0.8206619108       -1.7091400039
 H          3.0368165666        0.9688878065       -0.9809484734
 H          2.2025263032        1.9208736566        0.2475691900
 H          1.3787297260        1.4857151987       -1.2536755341
