  11
        -16.15010841
 C          1.4007972330       -0.0006187001       -0.0000440983
 C          0.6935341230       -1.1923695618       -0.0000487244
 C         -0.6921922123       -1.1330103089        0.0001160767
 N         -1.3716724636        0.0006158367       -0.0000024666
 C         -0.6911418371        1.1335976980       -0.0001101818
 C          0.6946195266        1.1917715439        0.0001482449
 H          2.4816391647       -0.0010953095       -0.0002455805
 H          1.2036389070       -2.1434262061       -0.0002367608
 H         -1.2905458152       -2.0350346030       -0.0000400636
 H         -1.2887761099        2.0361242566       -0.0003877639
 H          1.2055240714        2.1423732552        0.0002137401
