! r2scan-3c def2/J RI DEFGRID2 scfconv6 printgap
%output
    printlevel normal
end
%cpcm
    smd true
    smdsolvent "water"
end
* xyz 0 1
C -2.1213882681 0.2215953601 1.3126854407
C -1.7651394105 -0.5720964495 0.0582862918
C -2.9068051502 -0.5373849413 -0.9538579046
C -0.4951630038 -0.0154087191 -0.5813092641
O 0.6057736088 -0.2303902555 0.3117186149
C 1.7884273281 0.2566093005 -0.0401349751
O 1.9697067161 0.8763005068 -1.0693368873
C 2.8483588677 -0.0609831719 0.9709151196
H -1.2922303911 0.2073107637 2.0149314934
H -2.9940114624 -0.2091677139 1.7955189991
H -2.3419039093 1.2552508282 1.055682428
H -1.5633280974 -1.6095237717 0.3420149852
H -3.8120191714 -0.9380008936 -0.5069699874
H -2.6630380702 -1.1290626622 -1.8323402782
H -3.1002122227 0.4849933591 -1.2695740208
H -0.2735366954 -0.515225706 -1.5304053791
H -0.5835648195 1.0587570568 -0.7772918425
H 3.4520360132 0.8237154232 1.1506413975
H 3.4965661137 -0.8323249841 0.5609365562
H 2.3921238872 -0.4167124379 1.8880044284
*
