! r2scan-3c def2/J RI DEFGRID2 scfconv6 printgap
%output
    printlevel normal
end
%cpcm
    smd true
    smdsolvent "water"
end
* xyz 0 1
C 1.8694679995 -1.0179449157 -0.5202022188
C 1.236081244 -0.0080950166 0.4349490314
H 1.0419433852 -0.4892320617 1.4007939798
C -0.0679886519 0.6163446919 -0.0916434093
C -1.3495603341 -0.1899734303 0.1644348443
C -2.5519540743 0.7560480761 0.1795516812
C -1.5803725516 -1.2779833396 -0.8821629742
O 2.1709240979 1.0168367067 0.7508455929
H 1.9668133341 -0.5917557408 -1.516476092
H 2.8582231765 -1.2861851124 -0.1541026096
H 1.2708748394 -1.9198880214 -0.5811805263
H -0.1676234135 1.5769333421 0.4210174339
H 0.0273526406 0.8176517412 -1.1610169542
H -1.2720967496 -0.6616172364 1.1505300211
H -3.4702552572 0.201382755 0.3572114876
H -2.6404047785 1.2686907015 -0.7757207219
H -2.4468758553 1.5023294252 0.9634259741
H -1.6226477226 -0.8417427296 -1.8775745489
H -0.7908274734 -2.0221187648 -0.8634829158
H -2.5239208203 -1.7843642272 -0.6909988743
H 2.4368928523 1.4546481927 -0.0699220614
*
