  22
        -37.90900756
 C          3.5652058492        0.6909497063       -0.0001394285
 C          3.5652191147       -0.6910005545       -0.0000709470
 C          2.3661798509       -1.3859486666        0.0000050148
 C          1.1650382987       -0.6979208065        0.0001476748
 C          1.1650337787        0.6979852929       -0.0000164969
 C          2.3661506538        1.3859321353       -0.0002132198
 O          0.0000079086        1.4287178053        0.0001953210
 C         -1.1650255930        0.6979760425        0.0000451986
 C         -2.3662085296        1.3859576692        0.0001112541
 C         -3.5652589605        0.6909230046       -0.0000057422
 C         -3.5652098902       -0.6910306906       -0.0002890566
 C         -2.3661313105       -1.3859779506       -0.0003044005
 C         -1.1649956230       -0.6979194247       -0.0000399065
 O          0.0000000935       -1.4286479206        0.0004474624
 H          4.4958593381        1.2365240915       -0.0005182701
 H          4.4958225187       -1.2365798787       -0.0001844147
 H          2.3398509827       -2.4638527269        0.0000463671
 H          2.3398394699        2.4638454842       -0.0004636246
 H         -2.3399215153        2.4638395660        0.0003348881
 H         -4.4959741278        1.2363706522        0.0005164433
 H         -4.4958914727       -1.2365146053       -0.0002583452
 H         -2.3396840833       -2.4638571931       -0.0004999352
