  13
        -17.18831144
 C         -2.0934458170       -0.0000349025       -0.0121586881
 N         -0.6593348132       -0.0003142495        0.0172746096
 C          0.1321583062        1.1033702647        0.0048847482
 C          1.4409725313        0.7040149473       -0.0065687105
 C          1.4413638111       -0.7034868949       -0.0065829043
 C          0.1327623867       -1.1035000619        0.0048884567
 H         -2.4753227697        0.8785971208        0.5082607723
 H         -2.4672203634        0.0159700048       -1.0412339378
 H         -2.4739881624       -0.8950176908        0.4802052135
 H         -0.2917218859        2.0888292844        0.0101042419
 H          2.3012953769        1.3439042289       -0.0111917416
 H          2.3019614631       -1.3429957581       -0.0111975013
 H         -0.2904016290       -2.0892501137        0.0101425543
