! r2scan-3c def2/J RI DEFGRID2 scfconv6 printgap
%output
    printlevel normal
end
%cpcm
    smd true
    smdsolvent "water"
end
* xyz 0 1
C 1.4809656239 -0.5465183814 -1.152244216
C 1.092097298 -0.1083704432 0.2621366549
C 2.2237545767 0.7012353371 0.8959313441
O -0.0467034583 0.7490886724 0.299838691
C -1.3630375197 0.2271114525 0.1309524348
C -1.753940543 0.0395349912 -1.3392785975
C -1.6510317261 -1.0386854836 0.9383069639
H 1.4949795766 0.3167993292 -1.8124486467
H 2.4721958478 -0.9904138937 -1.1302243933
H 0.7862007342 -1.2809647413 -1.5482702363
H 0.9060308599 -0.9979475003 0.8801929607
H 1.9236238752 1.0434565019 1.8824107018
H 2.4374656005 1.5708617641 0.2807994145
H 3.1176208454 0.0916570975 0.9835743788
H -1.9713356127 1.0460721412 0.5388805489
H -1.404266154 0.8868013038 -1.9230356162
H -1.3303881074 -0.8717627234 -1.751273138
H -2.8359268153 -0.0178902966 -1.4173459642
H -2.7212589792 -1.2220219669 0.9303706737
H -1.3254299627 -0.914723499 1.9685388932
H -1.1514385776 -1.9029797304 0.5065713558
*
