! pbe def2-sv(p) def2/J RI DEFGRID1 loosescf d4 GCP(DFT/SV(P)) printgap
%output
    printlevel normal
end
* xyz 0 1
C -1.4432292907 0.3911326284 -0.2042119347
C 0.0142741708 0.3711435632 0.2773312605
C 0.8069107453 -0.7258231002 -0.437803711
O 2.0747218809 -0.8241689192 0.1790736982
O 0.5537891266 1.6505722843 0.032385016
O -2.1376916806 -0.7925157991 0.0955035724
H -1.4562764246 0.4887621176 -1.2920581454
H -1.9355329129 1.2706494163 0.2258410561
H 0.0437730641 0.1590419757 1.3588543963
H 0.9080649048 -0.4560061219 -1.4967061175
H 0.249961803 -1.6661703773 -0.3571229774
H 2.5822277645 -1.5316810007 -0.2396185402
H 1.5032564979 1.616772701 0.2222511519
H -2.2740747814 -0.8536573548 1.051657092
*
