! pbe def2-sv(p) def2/J RI DEFGRID1 loosescf d4 GCP(DFT/SV(P)) printgap
%output
    printlevel normal
end
* xyz 0 1
C -1.0856383495 -0.3777547973 -0.3994145137
C 0.1171631232 0.3361054627 0.2313893901
C 1.4450218907 -0.1418682392 -0.3948412244
O 1.8868843404 -1.3833926488 0.0960651802
O 0.0036527752 1.7370638082 0.1465937913
O -2.2327197175 -0.116957313 0.377564736
H -0.8851785892 -1.4565663418 -0.4294199397
H -1.221066411 -0.0123168184 -1.4273146621
H 0.1316880843 0.116856993 1.3043500497
H 2.2219561877 0.5754184759 -0.1200580544
H 1.3559762503 -0.1652030869 -1.4895327923
H 1.2765107237 -2.0834503478 -0.1723419975
H -0.1251825606 1.9971988625 -0.7772975205
H -3.0017004732 -0.5425653423 -0.0262393521
*
