  19
  -26.2939678000000       8.831357181152928E-002 !mtd2
 C         -2.5608674364        0.6225142244        0.0001686588
 C         -1.2257768050       -0.0575978717        0.0000386805
 C         -1.1491640545       -1.4446284688       -0.0000085351
 C          0.0756663889       -2.0833344162       -0.0000922892
 C          1.2400414585       -1.3387431535       -0.0000121912
 C          1.1768751546        0.0480526559       -0.0000088604
 C         -0.0572801191        0.7034574026       -0.0000798265
 C         -0.1075705006        2.2012964099       -0.0001895747
 O          2.3178584625        0.8022364212        0.0001550985
 H         -2.6684822499        1.2557910156       -0.8798056559
 H         -3.3651488883       -0.1085822962        0.0015179617
 H         -2.6673221791        1.2578060086        0.8788153855
 H         -2.0582922591       -2.0279281042       -0.0000803896
 H          0.1279599902       -3.1618263222       -0.0003069295
 H          2.2045967980       -1.8303973339       -0.0000034721
 H         -0.6349753372        2.5664620069       -0.8807973876
 H         -0.6343357815        2.5668952876        0.8806776689
 H          0.8991776499        2.6067648525       -0.0007109295
 H          3.0832148699        0.2159574664        0.0004236761
  19
  -26.2939677800000       8.831170277183031E-002 !mtd11
 C         -2.5608141583        0.6225416641        0.0002589321
 C         -1.2257569604       -0.0576177462       -0.0000334576
 C         -1.1491888442       -1.4446580983       -0.0001476168
 C          0.0756598071       -2.0833333032       -0.0001234116
 C          1.2400322456       -1.3387260268        0.0000413668
 C          1.1769161680        0.0480649512        0.0000983197
 C         -0.0572854742        0.7034548631       -0.0000149032
 C         -0.1075847010        2.2012603665       -0.0002918044
 O          2.3178150078        0.8022362595        0.0000642006
 H         -2.6679173298        1.2571872571       -0.8787549104
 H         -3.3651673673       -0.1084448191        0.0000337419
 H         -2.6678450192        1.2564989102        0.8797960452
 H         -2.0582922925       -2.0279658236        0.0001851312
 H          0.1280054272       -3.1618173155        0.0002126213
 H          2.2045690436       -1.8304074035        0.0002202637
 H          0.8991422006        2.6067760831        0.0003936423
 H         -0.6339815073        2.5665827075       -0.8815279071
 H         -0.6353978436        2.5667703505        0.8799658230
 H          3.0833236317        0.2161240430        0.0009896548
  19
  -26.2939677700000       8.831076826681428E-002 !mtd3
 C         -2.5608549221        0.6225097683        0.0000842081
 C         -1.2257708620       -0.0576052032        0.0000455314
 C         -1.1491787241       -1.4446376633        0.0000230359
 C          0.0756514815       -2.0833331920       -0.0000447570
 C          1.2400295212       -1.3387379894       -0.0000525164
 C          1.1768856460        0.0480552196       -0.0000829801
 C         -0.0572673977        0.7034515460       -0.0000421354
 C         -0.1075585942        2.2012759969       -0.0001295260
 O          2.3178442534        0.8022611168        0.0001428250
 H         -2.6678517971        1.2567660854        0.8794206623
 H         -2.6679441027        1.2568381958       -0.8791891179
 H         -3.3651710923       -0.1085509173        0.0001126251
 H         -2.0583302733       -2.0279024449       -0.0002498549
 H          0.1280048344       -3.1618201063       -0.0004395527
 H          2.2045639627       -1.8304301363       -0.0000400979
 H          0.8991297910        2.6067262687        0.0010584234
 H         -0.6334159854        2.5665214180       -0.8815935870
 H         -0.6357586819        2.5668276413        0.8798215970
 H          3.0832477694        0.2160309706        0.0012048156
  19
  -26.2939677700000       8.831076826681428E-002 !mtd1
 C         -2.5608668660        0.6224879600       -0.0001162061
 C         -1.2257703691       -0.0575989121        0.0000480970
 C         -1.1491707968       -1.4446229305        0.0000884825
 C          0.0756635770       -2.0833409021        0.0000310271
 C          1.2400202792       -1.3387299729       -0.0000246530
 C          1.1768776752        0.0480580862        0.0000426239
 C         -0.0572750391        0.7034822973        0.0000167788
 C         -0.1075727824        2.2012890231        0.0001268635
 O          2.3178792426        0.8022259473       -0.0001147453
 H         -3.3651046689       -0.1085385246        0.0013851002
 H         -2.6675172387        1.2584705196        0.8780298852
 H         -2.6684164120        1.2552006317       -0.8804949346
 H         -2.0582916792       -2.0279344227        0.0003211155
 H          0.1279768638       -3.1618335222        0.0001143704
 H          2.2045794860       -1.8303777144       -0.0002123570
 H          0.8992182715        2.6067736426       -0.0022566995
 H         -0.6368921202        2.5667580292       -0.8793033583
 H         -0.6324728196        2.5665861257        0.8822676326
 H          3.0832024349        0.2159103341       -0.0005677421
  19
  -26.2939677500000       8.830889928678061E-002 !mtd10
 C         -2.5608423706        0.6225332918        0.0002076318
 C         -1.2257949023       -0.0576127600       -0.0002379652
 C         -1.1491745266       -1.4446408588       -0.0003817089
 C          0.0756568764       -2.0833380129        0.0001333460
 C          1.2400417474       -1.3387472392        0.0003844988
 C          1.1768755440        0.0480519923        0.0000014519
 C         -0.0572831173        0.7034469057       -0.0000842296
 C         -0.1075609910        2.2012552098        0.0001862018
 O          2.3178537007        0.8022726808       -0.0003392480
 H         -3.3652592594       -0.1084374775       -0.0020518698
 H         -2.6685088712        1.2548239991        0.8808397862
 H         -2.6672286392        1.2587378200       -0.8777407688
 H         -2.0583226453       -2.0278921397       -0.0005014020
 H          0.1280261889       -3.1618241946        0.0004052327
 H          2.2045845078       -1.8304153255        0.0008482829
 H         -0.6347838629        2.5665109613        0.8808702536
 H          0.8991469921        2.6067419298        0.0004327997
 H         -0.6343581971        2.5668654985       -0.8805215875
 H          3.0832414199        0.2160692968        0.0003111709
  19
  -26.2939677500000       8.830889928678061E-002 !mtd5
 C         -2.5608238829        0.6225312980       -0.0003473377
 C         -1.2257738902       -0.0575848291        0.0000583647
 C         -1.1491397576       -1.4446343856        0.0001461863
 C          0.0756714500       -2.0833685132        0.0001439917
 C          1.2400329229       -1.3387570792       -0.0000393950
 C          1.1768531237        0.0480500763        0.0000081254
 C         -0.0572820861        0.7034762623        0.0000956480
 C         -0.1075961821        2.2012933616        0.0003709437
 O          2.3178318242        0.8022316229       -0.0003015867
 H         -2.6682930930        1.2555180518       -0.8806125118
 H         -3.3649721252       -0.1084557904        0.0009141027
 H         -2.6676591175        1.2581005128        0.8779396445
 H         -2.0583337174       -2.0278441110        0.0000638326
 H          0.1279717337       -3.1618776586        0.0001485552
 H          2.2046153770       -1.8303683516       -0.0002684006
 H         -0.6324107100        2.5664897746        0.8825106794
 H          0.8991596700        2.6066011914       -0.0018872351
 H         -0.6366747856        2.5669907809       -0.8790433937
 H          3.0832023644        0.2159905647       -0.0001799194
  19
  -26.2939677300000       8.830703034596944E-002 !mtd2
 C         -2.5608616815        0.6225110337       -0.0000125555
 C         -1.2257730258       -0.0575979068       -0.0000922639
 C         -1.1491686662       -1.4446302005       -0.0000300469
 C          0.0756629299       -2.0833379035        0.0000927007
 C          1.2400462259       -1.3387432480        0.0000115993
 C          1.1768827662        0.0480448635       -0.0000631563
 C         -0.0572765638        0.7034550399        0.0000096974
 C         -0.1075831130        2.2013045570        0.0001006388
 O          2.3178613240        0.8022318014       -0.0000997884
 H         -3.3651669517       -0.1085283428       -0.0040684610
 H         -2.6694334683        1.2534584050        0.8815023044
 H         -2.6664351481        1.2601245112       -0.8769991325
 H         -2.0583087311       -2.0279144347       -0.0001658630
 H          0.1279812951       -3.1618249175        0.0001315030
 H          2.2045932500       -1.8304154059        0.0000794319
 H         -0.6323457576        2.5668660164       -0.8818857534
 H         -0.6368993479        2.5665842479        0.8794574220
 H          0.8990725337        2.6068115441        0.0026241007
 H          3.0832324890        0.2159799820        0.0007105074
  19
  -26.2939677200000       8.830609589072849E-002 !mtd6
 C         -2.5608610326        0.6225145337        0.0002256592
 C         -1.2257820826       -0.0576005287        0.0000545579
 C         -1.1491720139       -1.4446325253        0.0000190130
 C          0.0756554954       -2.0833226545       -0.0000364239
 C          1.2400402100       -1.3387329391       -0.0000639611
 C          1.1768851426        0.0480554807       -0.0000587324
 C         -0.0572767441        0.7034499431       -0.0001358193
 C         -0.1075640299        2.2012663913       -0.0001985739
 O          2.3178598428        0.8022498027        0.0002878209
 H         -2.6669913241        1.2585537295        0.8783375273
 H         -2.6688577090        1.2550164889       -0.8801940003
 H         -3.3652070885       -0.1085042334        0.0024229234
 H         -2.0583139646       -2.0279110956       -0.0003891752
 H          0.1280056205       -3.1618156280       -0.0008175508
 H          2.2045753458       -1.8304280269       -0.0003596253
 H         -0.6316291697        2.5668124855        0.8822976363
 H          0.8992070160        2.6067212236       -0.0035292190
 H         -0.6376523279        2.5665154616       -0.8792131295
 H          3.0832240714        0.2159971476       -0.0008090416
  19
  -26.2939676700000       8.830142376151841E-002 !md1
 C         -2.5608715083        0.6225123978        0.0008111492
 C         -1.2257871503       -0.0576054618        0.0001807356
 C         -1.1491696992       -1.4446145213       -0.0001660195
 C          0.0756855158       -2.0833262252       -0.0005122448
 C          1.2400356934       -1.3387474282        0.0000006232
 C          1.1768642911        0.0480607167        0.0000818761
 C         -0.0572691946        0.7034551888       -0.0001866219
 C         -0.1075485067        2.2012779101       -0.0010553102
 O          2.3178362799        0.8022392776        0.0007804633
 H         -2.6665818328        1.2583636134        0.8790602040
 H         -2.6692846679        1.2551697125       -0.8794555703
 H         -3.3651237461       -0.1085351500        0.0034196919
 H         -2.0582755248       -2.0279480831       -0.0003777676
 H          0.1279378425       -3.1618229885       -0.0012239929
 H          2.2046046809       -1.8303682091        0.0000823464
 H         -0.6325630976        2.5659267621       -0.8833528725
 H         -0.6366374105        2.5674366792        0.8781524721
 H          0.8992197523        2.6066963305        0.0008379707
 H          3.0832657608        0.2160286892        0.0005478730
  19
  -26.2926783600000       2.256533864149971E-002 !mtd3
 C         -2.5854249027        0.5984821921        0.0011998433
 C         -1.2337084948       -0.0545602461        0.0001099514
 C         -1.1483754123       -1.4430737548       -0.0003614738
 C          0.0752893185       -2.0824575488       -0.0006392875
 C          1.2404687246       -1.3379248433        0.0000826962
 C          1.1687447965        0.0465401669        0.0002487916
 C         -0.0661188154        0.7046247618       -0.0007632502
 C         -0.0476524543        2.2038777812       -0.0012290564
 O          2.2963339958        0.8180462040        0.0009258393
 H         -2.7196895400        1.2100968703       -0.8901789339
 H         -3.3686435223       -0.1548573782        0.0189324996
 H         -2.7057946273        1.2379129173        0.8745245427
 H         -2.0558373018       -2.0290249790       -0.0002500982
 H          0.1264879179       -3.1610110756       -0.0009735189
 H          2.2063314369       -1.8267565614        0.0005387382
 H          0.4575453020        2.5636288447        0.8944102560
 H          0.5246778496        2.5610197871       -0.8563408675
 H         -1.0445298461        2.6274708307       -0.0397252795
 H          3.0728795518        0.2463087808        0.0004749251
  19
  -26.2926755700000       2.249881580502112E-002 !gc
 C         -2.5854151699        0.5985702827        0.0003129012
 C         -1.2337380304       -0.0546082106       -0.0000229140
 C         -1.1483508232       -1.4431092141       -0.0000834528
 C          0.0753414914       -2.0824870476       -0.0001209267
 C          1.2404806895       -1.3379428190        0.0000132770
 C          1.1686891095        0.0465441280        0.0000284902
 C         -0.0661389917        0.7046179147       -0.0001966519
 C         -0.0476126074        2.2038778971       -0.0002705326
 O          2.2963013305        0.8180628752        0.0002000550
 H         -3.3689499384       -0.1549543036        0.0025987352
 H         -2.7115859078        1.2258900325        0.8817251297
 H         -2.7136361037        1.2224903443       -0.8832520508
 H         -2.0557364669       -2.0291527626       -0.0000722486
 H          0.1264186429       -3.1610137067       -0.0001812094
 H          2.2064183870       -1.8266127286        0.0001333945
 H          0.4981820894        2.5620572987       -0.8722016650
 H         -1.0451603274        2.6275625657       -0.0078789674
 H          0.4848369604        2.5625291239        0.8797438464
 H          3.0727662572        0.2462706766        0.0002588258
  19
  -26.2926755200000       2.249762542995749E-002 !gc
 C         -2.5854584718        0.5985074536       -0.0003279150
 C         -1.2337196910       -0.0545805898       -0.0000253857
 C         -1.1483681094       -1.4431033646        0.0001034953
 C          0.0753056874       -2.0824851508        0.0002150732
 C          1.2404711334       -1.3379358400       -0.0000074804
 C          1.1687181743        0.0465385956       -0.0000958462
 C         -0.0661349735        0.7046067149        0.0001631378
 C         -0.0475401078        2.2038615520        0.0004076092
 O          2.2962747364        0.8181067136       -0.0003165056
 H         -2.7141946797        1.2213664038        0.8838884641
 H         -2.7112804169        1.2269109704       -0.8809697125
 H         -3.3689486432       -0.1549918546       -0.0039216427
 H         -2.0558156932       -2.0290504144        0.0000487052
 H          0.1265296553       -3.1609984866        0.0002931271
 H          2.2063370479       -1.8267508471       -0.0001288701
 H         -1.0450284799        2.6276405260        0.0070725724
 H          0.4974260920        2.5619015528        0.8729379642
 H          0.4859212558        2.5625825900       -0.8789749748
 H          3.0728154195        0.2463984838       -0.0003777064
  19
  -26.2926755200000       2.249762542995749E-002 !gc
 C         -2.5854136725        0.5985694463        0.0001647896
 C         -1.2337463495       -0.0546202065       -0.0001119728
 C         -1.1483600813       -1.4431036868       -0.0000594842
 C          0.0753431183       -2.0824836075        0.0000058549
 C          1.2404822743       -1.3379496365        0.0000403881
 C          1.1686889104        0.0465465109        0.0000194290
 C         -0.0661268107        0.7046154331       -0.0001723626
 C         -0.0476104275        2.2038722445       -0.0000135901
 O          2.2963000466        0.8180698015       -0.0000004891
 H         -2.7128803917        1.2239739099       -0.8824425365
 H         -3.3689590336       -0.1549285809        0.0005805102
 H         -2.7123001086        1.2244531936        0.8825290683
 H         -2.0557415997       -2.0291580900        0.0001407073
 H          0.1264117403       -3.1610101211        0.0001095000
 H          2.2064116189       -1.8266278158        0.0000561456
 H          0.4969999346        2.5622525721       -0.8726022840
 H         -1.0451718655        2.6275624243       -0.0061604150
 H          0.4860039405        2.5623182876        0.8793718401
 H          3.0727843219        0.2463166516       -0.0000619508
  19
  -26.2926754500000       2.249595901072610E-002 !gc
 C         -2.5854251405        0.5985589428        0.0003469464
 C         -1.2337394176       -0.0546058866        0.0000552905
 C         -1.1483523493       -1.4431046664       -0.0000995138
 C          0.0753402074       -2.0824847901       -0.0001868173
 C          1.2404786664       -1.3379422644       -0.0000083730
 C          1.1686888043        0.0465454190        0.0000558573
 C         -0.0661367481        0.7046179971       -0.0001016360
 C         -0.0476007566        2.2038765805       -0.0004203382
 O          2.2963008298        0.8180650475        0.0002656451
 H         -2.7115611650        1.2260467258        0.8816600261
 H         -2.7136814694        1.2223187808       -0.8833105755
 H         -3.3689499662       -0.1549691623        0.0028673644
 H         -2.0557392641       -2.0291469434       -0.0001676205
 H          0.1264157332       -3.1610109399       -0.0003228086
 H          2.2064169060       -1.8266117348        0.0001080128
 H          0.4946426467        2.5619933274       -0.8746081504
 H         -1.0451647853        2.6275682608       -0.0040821231
 H          0.4884444374        2.5625897464        0.8773656882
 H          3.0727670872        0.2462730580        0.0005465337
  19
  -26.2918786300000       9.680803266908813E-003 !gc
 C         -2.5874004778        0.5780666948        0.0000170413
 C         -1.2288443580       -0.0626035196        0.0000617911
 C         -1.1361068246       -1.4486934287       -0.0000519875
 C          0.0927345611       -2.0820845345        0.0000178076
 C          1.2519082411       -1.3343382378        0.0000802402
 C          1.1749202181        0.0525706997        0.0000114565
 C         -0.0629267973        0.7043182237        0.0001337116
 C         -0.0865536017        2.2114814682       -0.0000132804
 O          2.3528451859        0.7401079368       -0.0000764120
 H         -2.7247636205        1.2008385555        0.8833870667
 H         -2.7247964577        1.2006157572       -0.8835005642
 H         -3.3613659486       -0.1850325754        0.0001584970
 H         -2.0410086192       -2.0384708199       -0.0002982813
 H          0.1472595177       -3.1602406777       -0.0001624275
 H          2.2261117571       -1.7962042382        0.0000947993
 H          0.4169917857        2.6065201335        0.8852787607
 H          0.4112375805        2.6061145842       -0.8887566019
 H         -1.1020519219        2.5901171793        0.0032575653
 H          2.1758626239        1.6878194849       -0.0013058657
  19
  -26.2918786300000       9.680803266908813E-003 !gc
 C         -2.5873236039        0.5782094118        0.0002648750
 C         -1.2288513062       -0.0626352129       -0.0000091256
 C         -1.1360928993       -1.4486782228       -0.0000673362
 C          0.0927666767       -2.0821149827       -0.0000961280
 C          1.2518994821       -1.3343851795       -0.0000165230
 C          1.1749420563        0.0525157689        0.0000292237
 C         -0.0629454113        0.7042977439       -0.0000622459
 C         -0.0867637544        2.2114504293       -0.0002881663
 O          2.3529305617        0.7401217806        0.0001845420
 H         -3.3613855444       -0.1847965692        0.0009081699
 H         -2.7242867630        1.2013426501        0.8834295568
 H         -2.7249207235        1.2004575885       -0.8834292339
 H         -2.0409981546       -2.0384583303       -0.0000573819
 H          0.1472635075       -3.1602626342       -0.0002336908
 H          2.2261535000       -1.7961887130       -0.0000807837
 H          0.4149309746        2.6060923510       -0.8867837208
 H         -1.1021721291        2.5901754035       -0.0016046142
 H          0.4128298258        2.6064322024        0.8872218810
 H          2.1758953067        1.6877502069        0.0006251077
  19
  -26.2918786100000       9.680598385574736E-003 !md4
 C         -2.5873798371        0.5780604198        0.0001233739
 C         -1.2288365832       -0.0625934281        0.0000022122
 C         -1.1361070286       -1.4486777824       -0.0001056596
 C          0.0927239730       -2.0820935943       -0.0001271067
 C          1.2519049493       -1.3343398134        0.0001349781
 C          1.1749084397        0.0525626460        0.0001776023
 C         -0.0629104098        0.7043298216        0.0001053065
 C         -0.0866076888        2.2114943374       -0.0001543534
 O          2.3528778188        0.7401014353       -0.0001310456
 H         -2.7249388655        1.1998292933        0.8841449796
 H         -2.7245457366        1.2016118808       -0.8827026501
 H         -3.3613140052       -0.1850701281       -0.0007850839
 H         -2.0410222840       -2.0384672342       -0.0001642053
 H          0.1472624632       -3.1602376895       -0.0000927867
 H          2.2261151975       -1.7961902164        0.0001736580
 H          0.4114947160        2.6059425309       -0.8887659367
 H         -1.1021114520        2.5900405433        0.0029280277
 H          0.4166179615        2.6066351173        0.8852181295
 H          2.1758195212        1.6877856999        0.0002628435
  19
  -26.2918785900000       9.680393508540308E-003 !mtd10
 C         -2.5873811316        0.5780892518        0.0001557373
 C         -1.2288444793       -0.0626192089        0.0001590744
 C         -1.1361157600       -1.4487007684        0.0001004735
 C          0.0927340919       -2.0820725925       -0.0002674685
 C          1.2519052780       -1.3343296460       -0.0002033808
 C          1.1749285492        0.0525777306        0.0000928682
 C         -0.0629298744        0.7042997593       -0.0000806893
 C         -0.0865459677        2.2114549957       -0.0004535959
 O          2.3528217837        0.7401219294        0.0003030466
 H         -3.3613866483       -0.1849963666        0.0030184433
 H         -2.7237256464        1.2031052526        0.8820914379
 H         -2.7257328695        1.1984388719       -0.8848278952
 H         -2.0410057167       -2.0384895269        0.0004566562
 H          0.1472892260       -3.1602399980       -0.0001257897
 H          2.2261021281       -1.7962197300       -0.0001991654
 H          0.4103972822        2.6063329678        0.8886151728
 H          0.4178336063        2.6062010021       -0.8853987284
 H         -1.1020610900        2.5901058658       -0.0047667743
 H          2.1759026086        1.6878295727        0.0022485342
  19
  -26.2918785800000       9.680291071649083E-003 !md7
 C         -2.5873998209        0.5780800843        0.0007383889
 C         -1.2288522649       -0.0626064602        0.0000484614
 C         -1.1360970980       -1.4486939638       -0.0001014940
 C          0.0927458538       -2.0820748842       -0.0003881576
 C          1.2519085993       -1.3343317098       -0.0001571881
 C          1.1749125382        0.0525880451        0.0001399556
 C         -0.0629280597        0.7043089410       -0.0002784844
 C         -0.0865371055        2.2114493964       -0.0009280976
 O          2.3528267538        0.7400994499        0.0007167833
 H         -2.7234687685        1.2025870061        0.8830398782
 H         -2.7261520671        1.1989399760       -0.8837355156
 H         -3.3614184023       -0.1849343415        0.0033843948
 H         -2.0409980966       -2.0384810254        0.0001224254
 H          0.1472725913       -3.1602260041       -0.0005510376
 H          2.2261375322       -1.7961362698       -0.0000016081
 H         -1.1019710141        2.5900422916       -0.0075919213
 H          0.4085777723        2.6065814401        0.8890043063
 H          0.4196043737        2.6059933438       -0.8848916423
 H          2.1759269927        1.6878208649        0.0008848539
  19
  -26.2918785800000       9.680291071649083E-003 !gc
 C         -2.5873672409        0.5780900961       -0.0006988729
 C         -1.2288274848       -0.0626114691       -0.0000451719
 C         -1.1361265659       -1.4487110176        0.0000941202
 C          0.0927033286       -2.0820944790        0.0004342512
 C          1.2518857362       -1.3343397480        0.0001803001
 C          1.1749717713        0.0525385970       -0.0000790412
 C         -0.0629038590        0.7043024261        0.0003384450
 C         -0.0865782837        2.2114511649        0.0009423714
 O          2.3528354651        0.7401803181       -0.0008255068
 H         -2.7234067221        1.2026420022       -0.8829948611
 H         -3.3613447403       -0.1849813704       -0.0034093724
 H         -2.7260391395        1.1988655634        0.8838879173
 H         -2.0410790189       -2.0384114702       -0.0000718219
 H          0.1473224078       -3.1602419045        0.0006830757
 H          2.2260450520       -1.7963227253        0.0000729618
 H          0.4197377181        2.6060042487        0.8847916508
 H          0.4083048673        2.6065932034       -0.8891089919
 H         -1.1020310698        2.5900238243        0.0077976604
 H          2.1758065576        1.6878509453       -0.0024439703
  19
  -26.2918785800000       9.680291071649083E-003 !mtd10
 C         -2.5874080805        0.5780947589       -0.0005743902
 C         -1.2288564511       -0.0626067616        0.0001165974
 C         -1.1360956760       -1.4486860574        0.0000926833
 C          0.0927555095       -2.0820798007        0.0002180291
 C          1.2519230474       -1.3343557136        0.0000581106
 C          1.1749244045        0.0525584775        0.0000296642
 C         -0.0629438891        0.7043080887        0.0003223402
 C         -0.0865567217        2.2114549602        0.0005564246
 O          2.3528282471        0.7401051042       -0.0006024925
 H         -3.3613366260       -0.1850047808       -0.0005717564
 H         -2.7252177729        1.2011173767        0.8825180886
 H         -2.7244203125        1.2003589018       -0.8843299003
 H         -2.0409488424       -2.0385347640        0.0000107519
 H          0.1472250727       -3.1602374496        0.0005831988
 H          2.2261403107       -1.7961937173       -0.0000508076
 H         -1.1018144379        2.5903073623        0.0032312834
 H          0.4163301305        2.6062000160        0.8861734842
 H          0.4117910599        2.6066424520       -0.8873699465
 H          2.1758637437        1.6878174727       -0.0003958126
  19
  -26.2918785600000       9.680086201154936E-003 !gc
 C         -2.5873663898        0.5780908088        0.0008475647
 C         -1.2288272172       -0.0626118731        0.0000908756
 C         -1.1361266017       -1.4487108680       -0.0000923389
 C          0.0927036089       -2.0820947694       -0.0005014790
 C          1.2518852981       -1.3343400698       -0.0002078394
 C          1.1749719478        0.0525386463        0.0000897900
 C         -0.0629031786        0.7043026522       -0.0003689208
 C         -0.0865798424        2.2114511013       -0.0011266947
 O          2.3528352362        0.7401800245        0.0009112578
 H         -2.7263862838        1.1982185266       -0.8841453034
 H         -3.3613432624       -0.1849779453        0.0044141759
 H         -2.7230579192        1.2032886850        0.8827332315
 H         -2.0410790387       -2.0384114130        0.0001034693
 H          0.1473220423       -3.1602421692       -0.0007987787
 H          2.2260455654       -1.7963214101       -0.0000950949
 H          0.4202851515        2.6059077335       -0.8847037573
 H         -1.1020289128        2.5900209088       -0.0086854670
 H          0.4077484674        2.6066925045        0.8891890134
 H          2.1758110744        1.6878508685        0.0026462067
  19
  -26.2918785600000       9.680086201154936E-003 !md7
 C         -2.5873931181        0.5780896237        0.0009381444
 C         -1.2288413253       -0.0626164582        0.0000652808
 C         -1.1361082540       -1.4487121642       -0.0002128509
 C          0.0927340159       -2.0820969915       -0.0005168970
 C          1.2518951255       -1.3343303684       -0.0000474414
 C          1.1749190924        0.0525759206        0.0001928682
 C         -0.0629295845        0.7043024683       -0.0003427768
 C         -0.0865225255        2.2114513993       -0.0011221449
 O          2.3528278920        0.7401428159        0.0007997003
 H         -2.7262889975        1.1991358279       -0.8834237722
 H         -3.3613462371       -0.1849843751        0.0034553941
 H         -2.7233054425        1.2023080461        0.8835111624
 H         -2.0410249587       -2.0384375867       -0.0004658612
 H          0.1472960805       -3.1602414932       -0.0012336685
 H          2.2260831714       -1.7962005637        0.0000295594
 H         -1.1018922340        2.5901189867       -0.0081492804
 H          0.4083177231        2.6068062194        0.8888170750
 H          0.4198586498        2.6058390058       -0.8849415093
 H          2.1757857471        1.6878223960        0.0021693204
  19
  -26.2912202400000       4.823211431425030E-003 !gc
 C         -2.5605042051        0.6025205623       -0.0028092333
 C         -1.2166786241       -0.0624213188       -0.0000435559
 C         -1.1357880650       -1.4468038132       -0.0001686668
 C          0.0928294259       -2.0820908349        0.0016251465
 C          1.2499647688       -1.3337508846        0.0013075202
 C          1.1857484783        0.0564289991        0.0001695300
 C         -0.0499228837        0.7094024574        0.0020990906
 C         -0.1706344713        2.2093153609        0.0036849914
 O          2.3833629708        0.7087215593       -0.0038959507
 H         -2.6865492474        1.2258725402        0.8820734720
 H         -2.6746298995        1.2418054680       -0.8777297142
 H         -3.3531548663       -0.1408624418       -0.0142712223
 H         -2.0437798289       -2.0317567572       -0.0015774061
 H          0.1478496518       -3.1601845909        0.0021047456
 H          2.2237153741       -1.7968600571        0.0007665487
 H         -0.7539766984        2.5381308551        0.8633918108
 H          0.7899215142        2.7207654786        0.0450464585
 H         -0.6861257165        2.5467627836       -0.8957151827
 H          2.2464769542        1.6628505240       -0.0121354586
  19
  -26.2894210800000       7.186205174576623E-004 !gc
 C         -2.6195086916        0.5272969978        0.0107078601
 C         -1.2296123556       -0.0462225444       -0.0006059129
 C         -1.1356499384       -1.4361688137       -0.0023978516
 C          0.0865429291       -2.0758608499       -0.0051951771
 C          1.2480668120       -1.3296252180       -0.0013827638
 C          1.1723937243        0.0554335550        0.0011862084
 C         -0.0640026471        0.7185595694       -0.0040892184
 C         -0.0441856001        2.2264632616       -0.0126234398
 O          2.3549728986        0.7349827201        0.0099450411
 H         -2.6425136171        1.6111431128       -0.0017592597
 H         -3.1718671710        0.1660782588       -0.8559858000
 H         -3.1453909326        0.1890958332        0.9029822395
 H         -2.0461833966       -2.0175384279       -0.0013296014
 H          0.1376134245       -3.1541452561       -0.0079394540
 H          2.2217712793       -1.7924281930        0.0006289933
 H          0.4141283973        2.6110910315        0.9013466529
 H          0.5196788140        2.5977975022       -0.8713789361
 H         -1.0411698354        2.6460678691       -0.0778466716
 H          2.1875686426        1.6841294091        0.0250205543
