! pbe def2-sv(p) def2/J RI DEFGRID1 loosescf d4 GCP(DFT/SV(P)) printgap
%output
    printlevel normal
end
* xyz 0 1
C 1.8937938316 0.7358046737 -1.0683859195
C 1.4347645488 -0.2207400627 0.0352116811
H 2.1997608672 -1.0126920731 0.1227886137
C 0.0936971427 -0.9107591946 -0.2901464336
C -1.1631765241 -0.2287354457 0.2660912595
C -1.4018855539 1.1557236452 -0.330116432
C -2.3734323866 -1.1236136927 0.0006180337
O 1.3229301076 0.4343649044 1.2879057953
H 1.9931304601 0.1920297719 -2.0032933522
H 1.1821158711 1.5434555583 -1.2040280598
H 2.862526341 1.1631767333 -0.8162926434
H 0.006673545 -1.0034389521 -1.3736477874
H 0.1244170361 -1.9186937516 0.1286901948
H -1.034670211 -0.1202025175 1.3474397571
H -2.3657118144 1.5395041408 -0.0023808461
H -1.4016740121 1.1108185447 -1.4172886042
H -0.635855522 1.8501918795 0.0015596091
H -3.2712288038 -0.6823118176 0.4265017728
H -2.5248618678 -1.245687985 -1.0699200415
H -2.2330950879 -2.1072200676 0.442769315
H 2.1670890954 0.8545575803 1.4983281405
*
