  20
        -45.18672938
 C          2.2420505029       -2.3614257181        0.4142840789
 O          1.9961802835       -1.0114710230        0.7850991702
 P          1.4112229431        0.0293043814       -0.2991078795
 O          1.2466132552       -0.4737384167       -1.6536165722
 C         -0.1001174812        0.7640273647        0.5498162322
 H          0.0104152759        0.6723288374        1.6357049683
 C         -1.3290694751       -0.0144097209        0.1120846942
 Cl        -0.9761058541       -1.7286705220        0.2832461447
 Cl        -2.7415899116        0.4042458138        1.1073003443
 Cl        -1.6927612484        0.3474944774       -1.5816247921
 O         -0.1877503149        2.1180468611        0.2653764805
 O          2.4422992147        1.2412335700       -0.2653048236
 C          2.8796610161        1.8522791169        0.9434191095
 H          1.5763969021       -3.0109948221        0.9841950501
 H          3.2799156435       -2.5950359738        0.6509486633
 H          2.0680591992       -2.4977842110       -0.6541808263
 H         -0.2620477226        2.2388594971       -0.6936612634
 H          3.0724302297        1.1007539044        1.7092376879
 H          2.1301858093        2.5609741203        1.2980431069
 H          3.8017541413        2.3793275439        0.7011647243
