! r2scan-3c def2/J RI DEFGRID2 scfconv6 printgap
%output
    printlevel normal
end
%cpcm
    smd true
    smdsolvent "water"
end
* xyz 0 1
C -2.5851565456 -0.0177906768 0.8622133287
C -1.7475350932 0.6378422043 -0.2354237571
C -0.4254361578 -0.0709730631 -0.3878504038
O -0.2975723521 -1.2602355316 -0.5917192509
O 0.5948957436 0.7708446664 -0.2795773505
C 1.9307526721 0.2497272367 -0.387698605
C 2.4367769213 -0.2421885687 0.9596922541
H -3.5696903745 0.4377353626 0.9003398645
H -2.693023146 -1.0805185644 0.6592015044
H -2.1056443067 0.1019757162 1.8303399668
H -1.5577409552 1.6873974317 -0.0162453583
H -2.273359161 0.5567597175 -1.1884354847
H 1.9290674478 -0.5640301744 -1.1192718361
H 2.5240577535 1.0882206525 -0.7534564964
H 2.3813137214 0.5562639817 1.6945213913
H 1.8331025508 -1.0805814755 1.3001843474
H 3.4669091754 -0.5677609651 0.8600100972
*
