! r2scan-3c def2/J RI DEFGRID2 scfconv6 printgap
%output
    printlevel normal
end
%cpcm
    smd true
    smdsolvent "water"
end
* xyz 0 1
C -1.9893137145 0.9071756668 1.2345656743
C -2.0941847651 -0.2570051436 0.2534833912
C -3.5227351794 -0.390611153 -0.2671446762
C -1.1259281952 -0.0596647109 -0.9265689225
C 0.3018126959 -0.0497146504 -0.4847625303
C 0.9286421258 -1.1940875563 0.0170588311
N 2.1820692478 -1.1875540858 0.4373438516
C 2.8385066057 -0.035318053 0.3579448333
C 2.2338548483 1.1019733415 -0.1549535701
N 0.9755486606 1.0941251222 -0.5718871647
H -2.2465481227 1.8412854284 0.7411512262
H -0.9769718377 0.9951894007 1.6238354445
H -2.6665779333 0.7599285425 2.0722389069
H -1.8219252843 -1.1804387121 0.7766517138
H -3.6097095325 -1.2377638729 -0.942987948
H -4.2126826596 -0.5385675557 0.5597133292
H -3.8150919973 0.5097371653 -0.8020605357
H -1.3421117233 0.8884356662 -1.4191627545
H -1.2693568239 -0.8726397343 -1.6412136785
H 0.411580288 -2.1414892264 0.0791870926
H 3.8600614959 -0.0395307964 0.7080327581
H 2.7583518764 2.0431464292 -0.2386620714
*
