  17
        -22.48593485
 C         -1.8632429601       -1.4117373484       -0.0027491452
 C         -0.5447504031       -0.6936162625        0.0043133299
 C          0.6468694539       -1.3985125597        0.0013625503
 C          1.8716088982       -0.7520387183       -0.0016599020
 C          1.9102785074        0.6306710164       -0.0025958537
 C          0.7335648581        1.3535231268        0.0069136824
 C         -0.5018499561        0.7088810097        0.0114841385
 N         -1.6689144815        1.4529365064       -0.0515653393
 H         -2.4631040777       -1.1026988581       -0.8585806629
 H         -1.7092619648       -2.4862193148       -0.0586382417
 H         -2.4303006414       -1.1979604648        0.9056036776
 H          0.6151372160       -2.4792508211       -0.0003291265
 H          2.7866918274       -1.3247226810       -0.0044645718
 H          2.8576581236        1.1496572686       -0.0058617178
 H          0.7596240110        2.4347232329        0.0088697223
 H         -2.4945765298        1.0156873982        0.3239481377
 H         -1.5715689014        2.4234682286        0.2026454392
