  17
  -22.4859348500000       0.166670781908046      !mtd1
 C         -1.8632429601       -1.4117373484       -0.0027491452
 C         -0.5447504031       -0.6936162625        0.0043133299
 C          0.6468694539       -1.3985125597        0.0013625503
 C          1.8716088982       -0.7520387183       -0.0016599020
 C          1.9102785074        0.6306710164       -0.0025958537
 C          0.7335648581        1.3535231268        0.0069136824
 C         -0.5018499561        0.7088810097        0.0114841385
 N         -1.6689144815        1.4529365064       -0.0515653393
 H         -2.4631040777       -1.1026988581       -0.8585806629
 H         -1.7092619648       -2.4862193148       -0.0586382417
 H         -2.4303006414       -1.1979604648        0.9056036776
 H          0.6151372160       -2.4792508211       -0.0003291265
 H          2.7866918274       -1.3247226810       -0.0044645718
 H          2.8576581236        1.1496572686       -0.0058617178
 H          0.7596240110        2.4347232329        0.0088697223
 H         -2.4945765298        1.0156873982        0.3239481377
 H         -1.5715689014        2.4234682286        0.2026454392
  17
  -22.4859348300000       0.166667254542474      !mtd8
 C         -1.8632510668       -1.4117415369       -0.0027292276
 C         -0.5447544672       -0.6936129848        0.0042119220
 C          0.6468939344       -1.3985175008        0.0013333175
 C          1.8716039312       -0.7520378099       -0.0016072212
 C          1.9102823293        0.6306944234       -0.0026065417
 C          0.7335767552        1.3535126447        0.0068614345
 C         -0.5018408181        0.7088415989        0.0114566063
 N         -1.6689548445        1.4530017363       -0.0515300580
 H         -1.7092792306       -2.4861083101       -0.0599547905
 H         -2.4298021411       -1.1990824989        0.9061973964
 H         -2.4636511599       -1.1018800281       -0.8578243877
 H          0.6151474812       -2.4792532135       -0.0003549629
 H          2.7867045113       -1.3246928892       -0.0043301015
 H          2.8576864249        1.1496319182       -0.0058289371
 H          0.7595547515        2.4347132839        0.0088258994
 H         -2.4944285898        1.0155128558        0.3242045584
 H         -1.5714557832        2.4233109207        0.2035374577
  17
  -22.4859348200000       0.166665490887370      !mtd14
 C         -1.8632846183       -1.4116292418       -0.0009622904
 C         -0.5447060368       -0.6936767854       -0.0019157123
 C          0.6467645987       -1.3983752568        0.0228762917
 C          1.8714609590       -0.7518299505        0.0318416776
 C          1.9101847646        0.6307816362        0.0166905952
 C          0.7336948449        1.3533914568       -0.0149429686
 C         -0.5016398654        0.7086617636       -0.0257966006
 N         -1.6693089929        1.4532532055        0.0146834966
 H         -2.4195529235       -1.2097814760       -0.9186990539
 H         -1.7102071160       -2.4853509759        0.0707251069
 H         -2.4733518165       -1.0912695199        0.8434290792
 H          0.6150234507       -2.4790291351        0.0372940474
 H          2.7863875887       -1.3244472744        0.0518105521
 H          2.8575150102        1.1498234958        0.0246117792
 H          0.7598697153        2.4344805031       -0.0294656910
 H         -1.5690513963        2.4206781805       -0.2501563898
 H         -2.4908062513        1.0113515062       -0.3647860056
  17
  -22.4859348200000       0.166665490887370      !mtd11
 C         -1.8632741310       -1.4116688154       -0.0014842912
 C         -0.5446963192       -0.6936396441       -0.0019239131
 C          0.6467426650       -1.3983658975        0.0232461269
 C          1.8714419447       -0.7518429387        0.0321787986
 C          1.9101845990        0.6307637403        0.0163200288
 C          0.7337005735        1.3533980339       -0.0153157722
 C         -0.5016289711        0.7086945194       -0.0257436173
 N         -1.6693116046        1.4532264613        0.0151866988
 H         -1.7100965716       -2.4854209409        0.0691860021
 H         -2.4731873535       -1.0922143857        0.8433430613
 H         -2.4195434835       -1.2090306364       -0.9190227134
 H          0.6148827620       -2.4790117617        0.0378837374
 H          2.7863799644       -1.3244199280        0.0523433829
 H          2.8575091537        1.1498103634        0.0235446270
 H          0.7599404282        2.4344882044       -0.0304210058
 H         -1.5691674717        2.4209210060       -0.2487447458
 H         -2.4908037982        1.0115218141       -0.3642209984
  17
  -22.4859348200000       0.166665490887370      !mtd13
 C         -1.8632594929       -1.4117267703       -0.0010982471
 C         -0.5447172148       -0.6936525659       -0.0019528491
 C          0.6467384507       -1.3983714522        0.0229895541
 C          1.8714228488       -0.7518294630        0.0319328312
 C          1.9101701531        0.6307934663        0.0165507906
 C          0.7336918504        1.3534017315       -0.0150152799
 C         -0.5016391200        0.7086712909       -0.0257302526
 N         -1.6692517247        1.4533061020        0.0147842056
 H         -2.4738238171       -1.0904636754        0.8425580985
 H         -2.4188168947       -1.2110894738       -0.9194721203
 H         -1.7101588005       -2.4852471386        0.0721566136
 H          0.6149174148       -2.4790119964        0.0374921665
 H          2.7863535088       -1.3244103161        0.0519132479
 H          2.8574958390        1.1498331578        0.0240206819
 H          0.7598622238        2.4344946232       -0.0300095946
 H         -2.4907986354        1.0113032983       -0.3641220956
 H         -1.5691999552        2.4207572387       -0.2498092869
  17
  -22.4859348200000       0.166665490887370      !mtd2
 C         -1.8632486935       -1.4116775670       -0.0012293922
 C         -0.5446996602       -0.6936543853       -0.0019279843
 C          0.6467289929       -1.3983789249        0.0230742677
 C          1.8714343870       -0.7518304335        0.0320556620
 C          1.9102021375        0.6307689149        0.0164603008
 C          0.7336989507        1.3533873885       -0.0151075825
 C         -0.5015937443        0.7086684918       -0.0257493742
 N         -1.6693896911        1.4533110075        0.0149474515
 H         -2.4737742542       -1.0906627986        0.8425391319
 H         -2.4188475835       -1.2106703165       -0.9195347316
 H         -1.7102114007       -2.4851993585        0.0716755633
 H          0.6149623026       -2.4790199501        0.0376296914
 H          2.7863225101       -1.3244975386        0.0523135492
 H          2.8574885436        1.1498622282        0.0243212095
 H          0.7599388112        2.4344754257       -0.0298160536
 H         -1.5690505887        2.4205990321       -0.2503558221
 H         -2.4904493374        1.0112436241       -0.3651140109
