! pbe def2-sv(p) def2/J RI DEFGRID1 loosescf d4 GCP(DFT/SV(P)) printgap
%output
    printlevel normal
end
* xyz 0 1
C -1.7272916094 0.9013564108 -0.1128880591
C -1.2405683438 -0.5521201334 -0.1366159479
N 0.0077007773 -0.8368261386 0.5450657452
C 1.2496209437 -0.5466235998 -0.1451216268
C 1.7112852252 0.9153684227 -0.1586825944
H -1.7476967719 1.2749997381 0.909061506
H -1.0865266535 1.5479722926 -0.7055129233
H -2.7342126247 0.9550203034 -0.518999353
H -1.1377742998 -0.8910488734 -1.1707103338
H -2.0023624671 -1.1759602073 0.3445463257
H 0.0095383895 -0.4059176231 1.4635192994
H 2.0222434431 -1.1460558687 0.349386764
H 1.1506675615 -0.9119766892 -1.1707197105
H 1.7158653509 1.3187994802 0.8520370946
H 2.7207245379 0.974345063 -0.5575659672
H 1.0653828726 1.5331121427 -0.7761868053
*
