  19
  -38.9519976400000       0.359346714610062      !mtd9
 C         -3.8052095919       -0.1089961492       -0.3350903274
 C         -3.3295341308        1.0867577182        0.1799517739
 C         -1.9823736886        1.2447711184        0.4396018091
 C         -1.1047283790        0.1972927216        0.1864961276
 C         -1.5725296814       -1.0054623334       -0.3173537866
 C         -2.9267171284       -1.1480684142       -0.5787132001
 O          0.2309446992        0.4478708007        0.4905156007
 C          1.1894391189       -0.3767825109       -0.0131712628
 H          1.0306003478       -0.6598617962       -1.0673865878
 C          2.5462387026        0.3272962775        0.1547703408
 F          2.5402969121        1.4851776046       -0.5338379987
 F          3.5320768843       -0.4295657430       -0.3648520589
 F          1.2540138822       -1.5587638472        0.6990469222
 H         -4.8576765975       -0.2303786750       -0.5403752028
 H         -4.0097323806        1.9012655983        0.3769768535
 H         -1.5880378110        2.1658395115        0.8371471895
 H         -0.9078201696       -1.8373338375       -0.4901984270
 H         -3.2903964715       -2.0856672726       -0.9709667730
 H          2.7699988992        0.5371202684        1.2100621390
  19
  -38.9519975800000       0.359323899802075      !mtd7
 C         -3.8054285582       -0.1100294947       -0.3342076708
 C         -2.9274805379       -1.1509545212       -0.5717892629
 C         -1.5730878138       -1.0074034409       -0.3118966703
 C         -1.1046060640        0.1981950038        0.1844358574
 C         -1.9817219577        1.2475693221        0.4314655037
 C         -3.3290406442        1.0886564700        0.1732678548
 O          0.2310897558        0.4502922035        0.4867679569
 C          1.1896636674       -0.3776506361       -0.0114693013
 H          1.0314345858       -0.6670644365       -1.0640337318
 C          2.5462824347        0.3275068373        0.1535766663
 F          2.5401293688        1.4822383173       -0.5400877355
 F          3.5325623224       -0.4312014938       -0.3623857831
 F          1.2535766475       -1.5554227595        0.7078703951
 H         -4.8580262651       -0.2323675168       -0.5380683180
 H         -3.2918490813       -2.0908439131       -0.9578910334
 H         -0.9087940591       -1.8406881658       -0.4798056432
 H         -1.5866620410        2.1708514487        0.8231296287
 H         -4.0087577574        1.9047502798        0.3654679119
 H          2.7695932589        0.5421183494        1.2079923331
  19
  -38.9507945000000       0.100597877566817      !mtd6
 C         -3.3234692026        0.1109633786        0.7356840147
 C         -2.9634664305        1.2018186553       -0.0389231570
 C         -1.7430434871        1.2221089742       -0.6863587607
 C         -0.8779922532        0.1421082081       -0.5627269443
 C         -1.2370234403       -0.9599329366        0.1987500139
 C         -2.4613012460       -0.9644347250        0.8481650822
 O          0.3108986483        0.2365994545       -1.2896397086
 C          1.4565977503       -0.3228090813       -0.8216083119
 H          2.2694335907       -0.0013337142       -1.4881713915
 C          1.7981265047        0.0569279784        0.6378977796
 F          1.6076666346        1.3811389277        0.8104121989
 F          3.1010807219       -0.1882915409        0.8815569953
 F          1.4303857706       -1.7036092486       -0.8780287491
 H         -4.2746804654        0.0974579939        1.2452653293
 H         -3.6328654285        2.0428452070       -0.1361115504
 H         -1.4407259540        2.0606946857       -1.2923136665
 H         -0.5897724108       -1.8194899843        0.2762476132
 H         -2.7391923738       -1.8230573170        1.4406412851
 H          1.1944190858       -0.4858308630        1.3791066597
  19
  -38.9507944600000       0.100593619570377      !mtd9
 C         -3.3172510124        0.6971754403       -0.3366209956
 C         -2.4770062961        1.0342774031        0.7087606405
 C         -1.2560509673        0.3982115714        0.8677046445
 C         -0.8778996468       -0.5791712880       -0.0405729118
 C         -1.7209272939       -0.9280954015       -1.0881959373
 C         -2.9384312191       -0.2906854079       -1.2311480672
 O          0.3089774187       -1.3103765835        0.0463308987
 C          1.4447531090       -0.7361092218        0.5200955106
 H          2.2607543087       -1.4559768019        0.3643109603
 C          1.8027261189        0.6106227986       -0.1499528608
 F          1.6436833448        0.5008579551       -1.4849045191
 F          3.1010145017        0.8998320517        0.0693314432
 F          1.3883571376       -0.5008678818        1.8811945171
 H         -4.2659114946        1.1986252372       -0.4515931087
 H         -2.7696126752        1.7952706499        1.4163996798
 H         -0.6265089774        0.6553155759        1.7051625484
 H         -1.4042531509       -1.6977600421       -1.7731280748
 H         -3.5905283873       -0.5630420112       -2.0468855237
 H          1.1908836032        1.4497275626        0.2103589625
  19
  -38.9491954500000       1.852321292827813E-002 !mtd12
 C         -3.7609406310       -0.1126844795       -0.3169608947
 C         -3.2092360746        1.1487939615       -0.1554152168
 C         -1.8486179035        1.2936685946        0.0293350659
 C         -1.0331659968        0.1681855189        0.0570583076
 C         -1.5769955796       -1.0973264403       -0.0915105232
 C         -2.9444245734       -1.2273117402       -0.2816669765
 O          0.3194680265        0.4189457636        0.2532327044
 C          1.2196941459       -0.5678170489        0.0219757537
 H          1.0303724751       -1.1406732327       -0.9039156430
 C          2.6417772490        0.0280114009       -0.0450206458
 F          2.7401610357        1.1725309406        0.6464204731
 F          2.9479509658        0.3161993623       -1.3297060111
 F          1.2176749061       -1.5058307158        1.0433472199
 H         -4.8241998291       -0.2248757353       -0.4636847202
 H         -3.8409174980        2.0237321671       -0.1764309451
 H         -1.3947348414        2.2630815995        0.1561718169
 H         -0.9623579298       -1.9825481072       -0.0412221652
 H         -3.3675002851       -2.2138383874       -0.3964225105
 H          3.3864682222       -0.6855949307        0.3401371920
  19
  -38.9491954300000       1.852282090916594E-002 !gc
 C         -3.7550055603       -0.3824107388       -0.1066820518
 C         -3.0024874992       -0.3644892342        1.0525303345
 C         -1.6336757015       -0.1477893434        1.0045651603
 C         -1.0232205775        0.0454283265       -0.2240062572
 C         -1.7741942760        0.0353520953       -1.3937750479
 C         -3.1371074818       -0.1765038506       -1.3304444356
 O          0.3374253705        0.2715493443       -0.3930063826
 C          1.1856966218        0.0251991616        0.6352530373
 H          0.9815923025       -0.9206276495        1.1691557404
 C          2.6395926637       -0.0003640914        0.1181114799
 F          2.7882230945        0.7256132592       -0.9993460431
 F          2.9851875971       -1.2707003600       -0.1884512216
 F          1.1134306669        1.0174355776        1.6013899918
 H         -4.8199168409       -0.5505284616       -0.0583009606
 H         -3.4774999338       -0.5142632131        2.0103042615
 H         -1.0701359811       -0.1120859050        1.9238426257
 H         -1.2695994510        0.1970600004       -2.3324404309
 H         -3.7187076499       -0.1836817956       -2.2396567263
 H          3.3363231263        0.3766774473        0.8827146407
  19
  -38.9490524200000       1.592151103618977E-002 !mtd1
 C         -3.7814922556       -0.2459752336       -0.3109318599
 C         -3.3705120949        0.4675386494        0.8023294355
 C         -2.0292185427        0.7461091935        0.9945119522
 C         -1.0994698000        0.3103162937        0.0624062343
 C         -1.5039740191       -0.3928879889       -1.0623123007
 C         -2.8484478767       -0.6709282750       -1.2407921845
 O          0.2383116957        0.6666699035        0.2720888892
 C          1.1721865080       -0.3234088948        0.2405615159
 H          0.9704783285       -1.1294682911       -0.4816169160
 C          2.5432061900        0.3141192274       -0.0341986076
 F          2.5261736502        0.8968454453       -1.2499716434
 F          3.5030574994       -0.6303729109       -0.0707816548
 F          1.2445188266       -0.9388836584        1.4782651247
 H         -4.8277826788       -0.4669089616       -0.4568068110
 H         -4.0946554581        0.8051150317        1.5280343104
 H         -1.6881863307        1.2991330948        1.8549637031
 H         -0.7836497484       -0.7069456188       -1.8031724899
 H         -3.1651533576       -1.2176179394       -2.1160744447
 H          2.8044487413        1.0670227487        0.7220293326
  19
  -38.9490523500000       1.592033171563143E-002 !mtd3
 C         -3.7874057610        0.0597192914       -0.3224361377
 C         -2.8948307298        0.9278936686       -0.9269708897
 C         -1.5477609727        0.8805363627       -0.6110045255
 C         -1.0994120478       -0.0512337271        0.3130946527
 C         -1.9886809814       -0.9191266855        0.9287164082
 C         -3.3333023030       -0.8583465007        0.6093575385
 O          0.2416161234       -0.1126949447        0.7114187203
 C          1.1867509690       -0.2444066787       -0.2594982694
 H          0.9609603116        0.2789531383       -1.2013926333
 C          2.5335806135        0.2293068892        0.3091611227
 F          2.4482424879        1.5384831105        0.6204343484
 F          3.5032662715        0.1141988066       -0.6187800256
 F          1.3286811284       -1.5791689674       -0.5973616595
 H         -4.8360163951        0.1024885860       -0.5742349561
 H         -3.2458038243        1.6530906308       -1.6454381174
 H         -0.8597937392        1.5760043315       -1.0686213605
 H         -1.6143765267       -1.6272260735        1.6505294234
 H         -4.0259694469       -1.5344482881        1.0869368240
 H          2.8216183933       -0.3357123453        1.2062640547
  19
  -38.9479428700000       4.921193113625259E-003 !mtd9
 C         -3.8723183053       -0.1946976678       -0.1451825535
 C         -3.4198825662        0.9039669810        0.5687124613
 C         -2.0651851055        1.1240843637        0.7200647895
 C         -1.1541823252        0.2375275165        0.1569086958
 C         -1.5974711787       -0.8683550662       -0.5497228261
 C         -2.9608108689       -1.0745814061       -0.6975105030
 O          0.1859736479        0.5523222207        0.3657704055
 C          1.1470814992       -0.1413781293       -0.3119448906
 H          0.9444310215       -0.2276030833       -1.3951832503
 C          2.4869536529        0.5957708789       -0.1078445943
 F          3.3136826226        0.3539968407       -1.1488706483
 F          3.1163628115        0.1789643345        1.0005154471
 F          1.2633659104       -1.4263259951        0.1585979865
 H         -4.9311524799       -0.3654667794       -0.2644007956
 H         -4.1245863423        1.5932308379        1.0083758923
 H         -1.6898845219        1.9707993487        1.2717217412
 H         -0.9067025957       -1.5825627580       -0.9689933280
 H         -3.3043538702       -1.9376457743       -1.2473154705
 H          2.3222036153        1.6815259095       -0.0357543410
  19
  -38.9479427500000       4.920568243582437E-003 !mtd3
 C         -3.8790973272       -0.0632484197       -0.0451961469
 C         -3.0445104591        0.9300264468       -0.5217983669
 C         -1.6665242219        0.7983945902       -0.4385641057
 C         -1.1302433941       -0.3426394115        0.1354110935
 C         -1.9633530517       -1.3485143124        0.6119560523
 C         -3.3336082342       -1.2062899179        0.5179936924
 O          0.2334322262       -0.5835410515        0.2808939903
 C          1.1189048308        0.4245087017        0.0273424443
 H          0.8499196914        1.3782841047        0.5172989326
 C          2.5026079795       -0.0299846062        0.5361905139
 F          3.2557066326        1.0449396166        0.8571030837
 F          3.1734342396       -0.7152977208       -0.4010167267
 F          1.1993189403        0.6945511294       -1.3167669382
 H         -4.9500118821        0.0481953414       -0.1168958268
 H         -3.4605876678        1.8191530695       -0.9707410546
 H         -1.0362165729        1.5759545648       -0.8401128366
 H         -1.5165691863       -2.2287272606        1.0452363343
 H         -3.9776023156       -1.9896545121        0.8876524390
 H          2.3953978650       -0.6622823074        1.4304738434
  19
  -38.9462604000000       8.295846948434994E-004 !gc
 C         -3.7624032809        0.0504197320       -0.2172543360
 C         -2.9136974657        0.7227427659       -1.0791248864
 C         -1.5455605558        0.7143775580       -0.8659394101
 C         -1.0317627368        0.0188350462        0.2181621082
 C         -1.8770601104       -0.6503029323        1.0911321214
 C         -3.2422156450       -0.6301942465        0.8708492609
 O          0.3315968183        0.0113143069        0.5260179169
 C          1.2096040271       -0.3057123024       -0.4563286911
 H          0.9633961233        0.0999057935       -1.4517041673
 C          2.6334043773        0.1496333818       -0.0751656923
 F          2.7846616260        0.2743557617        1.2510584080
 F          2.8731081309        1.3665095702       -0.6149090725
 F          1.2523435521       -1.6842114088       -0.6338513658
 H         -4.8275292927        0.0613837733       -0.3912535124
 H         -3.3148682292        1.2646513975       -1.9222530032
 H         -0.8945337700        1.2608501040       -1.5324252681
 H         -1.4499719098       -1.1730435080        1.9318106421
 H         -3.8998310490       -1.1522716629        1.5490712067
 H          3.3882914618       -0.5558124764       -0.4552412721
  19
  -38.9455956900000       4.105642835565743E-004 !gc
 C         -3.7335387747       -0.0632745494       -0.2891207182
 C         -3.0116919580        1.0069760386       -0.7906485062
 C         -1.6543623467        1.1091343425       -0.5397126697
 C         -1.0314151043        0.1345796028        0.2244945154
 C         -1.7441383229       -0.9411411626        0.7290508411
 C         -3.1005086000       -1.0341922915        0.4684907241
 O          0.3373580119        0.2638808349        0.5114978912
 C          1.1744402251       -0.3845017310       -0.3334660920
 H          0.9153477222       -0.2677547604       -1.4020895403
 C          2.6262276500        0.0867798074       -0.1171457726
 F          2.8379516363        0.5020286661        1.1400574925
 F          2.8817502192        1.1375530371       -0.9284911818
 F          1.1498529901       -1.7557473055       -0.1071744974
 H         -4.7917781175       -0.1397668706       -0.4884743614
 H         -3.5045892342        1.7651479020       -1.3802216980
 H         -1.0767256327        1.9386232827       -0.9186063221
 H         -1.2344650275       -1.6886662930        1.3165871945
 H         -3.6625512975       -1.8687100987        0.8594307141
 H          3.3408664440       -0.7174951419       -0.3510629478
  19
  -38.9445770800000       1.397205934484466E-004 !mtd3
 C         -3.8064212339       -0.3641855217        0.0429258014
 C         -3.1173544773        0.2307996482        1.0861444194
 C         -1.7813771448        0.5628619373        0.9404200293
 C         -1.1446832820        0.2932416473       -0.2602488262
 C         -1.8242916088       -0.3070404110       -1.3090055641
 C         -3.1609392848       -0.6306883217       -1.1529910510
 O          0.2029353222        0.6570800360       -0.4388521263
 C          1.1138017083       -0.2606310423        0.0018993358
 H          0.9254624430       -1.2818789868       -0.3778793552
 C          2.5148670987        0.2062789221       -0.4447865176
 F          3.2973036355       -0.8599556828       -0.7232015569
 F          3.1329715699        0.9050877801        0.5189106604
 F          1.0849201312       -0.3641759337        1.3728195921
 H         -4.8482709658       -0.6208391271        0.1612467607
 H         -3.6191472884        0.4379646649        2.0190078968
 H         -1.2290880574        1.0246857852        1.7436494187
 H         -1.3073521614       -0.5055323521       -2.2357285320
 H         -3.6969291758       -1.0940650731       -1.9674544772
 H          2.4413819581        0.8329548909       -1.3460605987
  19
  -38.9430708100000       2.838093234734917E-005 !mtd8
 C         -3.2458305545        0.4379119509       -0.5495460879
 C         -2.2647029981        1.2066887681        0.0476652652
 C         -1.0274276891        0.6646300275        0.3572749044
 C         -0.7785153197       -0.6635950845        0.0535561293
 C         -1.7605068540       -1.4440841978       -0.5448594035
 C         -2.9902921970       -0.8918274507       -0.8433958027
 O          0.4081804902       -1.3464378305        0.3367683423
 C          1.5461725756       -0.6960915720        0.6968245985
 H          2.2738697288       -1.4764926507        0.9674933251
 C          2.1716493127        0.2015273160       -0.4220971108
 F          2.6514342331        1.3443221071        0.1021776036
 F          1.2674651300        0.5442897342       -1.3612933886
 F          1.3853718129        0.0669904753        1.8281740174
 H         -4.2058492994        0.8710501431       -0.7855094672
 H         -2.4548200312        2.2432685769        0.2812477591
 H         -0.2844057057        1.2894017489        0.8258360445
 H         -1.5385351808       -2.4760906163       -0.7643525962
 H         -3.7496704282       -1.5013671365       -1.3094193540
 H          2.9963989452       -0.3189549787       -0.9328340548
