  19
        -38.95199764
 C         -3.8052095919       -0.1089961492       -0.3350903274
 C         -3.3295341308        1.0867577182        0.1799517739
 C         -1.9823736886        1.2447711184        0.4396018091
 C         -1.1047283790        0.1972927216        0.1864961276
 C         -1.5725296814       -1.0054623334       -0.3173537866
 C         -2.9267171284       -1.1480684142       -0.5787132001
 O          0.2309446992        0.4478708007        0.4905156007
 C          1.1894391189       -0.3767825109       -0.0131712628
 H          1.0306003478       -0.6598617962       -1.0673865878
 C          2.5462387026        0.3272962775        0.1547703408
 F          2.5402969121        1.4851776046       -0.5338379987
 F          3.5320768843       -0.4295657430       -0.3648520589
 F          1.2540138822       -1.5587638472        0.6990469222
 H         -4.8576765975       -0.2303786750       -0.5403752028
 H         -4.0097323806        1.9012655983        0.3769768535
 H         -1.5880378110        2.1658395115        0.8371471895
 H         -0.9078201696       -1.8373338375       -0.4901984270
 H         -3.2903964715       -2.0856672726       -0.9709667730
 H          2.7699988992        0.5371202684        1.2100621390
