! r2scan-3c def2/J RI DEFGRID2 scfconv6 printgap
%output
    printlevel normal
end
%cpcm
    smd true
    smdsolvent "water"
end
* xyz 0 1
C 2.5278158265 0.7446428299 0.3221119991
C 1.2626050439 -0.1051428587 0.24506965
C 1.402023439 -1.1816595175 -0.8289610914
C 0.0485186786 0.7825988988 -0.0465347692
C -1.2601435627 0.0635619904 0.1285353244
O -1.4513806109 -0.8867376787 0.857221424
O -2.2280498506 0.6026239317 -0.6003592752
H 2.4479681023 1.4865331721 1.1125632594
H 2.6946714679 1.258896888 -0.6213513616
H 3.3901336684 0.1162620003 0.5280423011
H 1.0962075783 -0.59632804 1.2097386574
H 2.2568816812 -1.8186970237 -0.6176637361
H 0.5113718118 -1.8056828898 -0.8576147782
H 1.5426597616 -0.7277094907 -1.8074744677
H 0.0865737664 1.1878881234 -1.0582470597
H 0.0315077644 1.6256351682 0.6493241134
H -3.0895684099 0.1604819354 -0.4723462471
*
