! r2scan-3c def2/J RI DEFGRID2 scfconv6 printgap
%output
    printlevel normal
end
%cpcm
    smd true
    smdsolvent "water"
end
* xyz 0 1
C -2.141582601 1.3332990852 0.1608952372
C -1.9119870663 -0.1655308691 0.3452146761
C -0.5601208455 -0.6056576685 -0.1558459899
O -0.3729094926 -1.5699669743 -0.8722528323
O 0.4198242092 0.1679092702 0.2831942533
C 1.7604501708 -0.1559423126 -0.1198726975
C 2.6819631126 0.9425076172 0.373695726
H -1.3834919381 1.8989902467 0.6941954012
H -2.0981293898 1.5978451254 -0.8925876287
H -3.1203722604 1.6028346541 0.546149938
H -2.6673268246 -0.7489600338 -0.1813530026
H -1.9580641869 -0.4134948708 1.4076328755
H 2.0230454003 -1.1287367949 0.3089102826
H 1.7819698293 -0.2487915049 -1.2107352576
H 3.70305732 0.7072528541 0.0925753469
H 2.3989814735 1.8935832529 -0.0674522904
H 2.6166928025 1.0237576271 1.4545598109
*
