! r2scan-3c def2/J RI DEFGRID2 scfconv6 printgap
%output
    printlevel normal
end
%cpcm
    smd true
    smdsolvent "water"
end
* xyz 0 1
C 2.0639009768 1.0302086329 0.4817575359
C 1.4912173056 -0.0526318028 -0.4275231507
C 0.0476748366 -0.4188405792 -0.1740253828
O -0.3350802835 -1.5684102632 -0.285332804
C -0.8816846155 0.7108372042 0.185884152
C -2.3454551019 0.2884966114 0.1865117861
H 1.5628864873 1.9814535723 0.331747955
H 1.9687347057 0.7420549782 1.5256344803
H 3.1196165334 1.1634870825 0.2613164105
H 1.5408724412 0.2824783509 -1.4676949152
H 2.0835990281 -0.9670793753 -0.3541402965
H -0.7170748228 1.5321496338 -0.5129915471
H -0.5958905873 1.0621127698 1.1797671883
H -2.9797560631 1.1175416558 0.4864452702
H -2.4967480353 -0.5402955746 0.8740554589
H -2.6437185973 -0.0441036493 -0.8050191226
*
