! pbe def2-sv(p) def2/J RI DEFGRID1 loosescf d4 GCP(DFT/SV(P)) printgap
%output
    printlevel normal
end
* xyz 0 1
C -3.2361658259 1.1769043807 -0.1918506478
C -1.9020369029 0.7279170249 0.300844412
O -1.70218707 0.0133226601 1.2589834011
O -0.9135704042 1.2294673289 -0.4529639853
C 0.4040779641 0.8501865869 -0.2318675637
C 1.3530460648 1.8578511279 -0.1452222465
C 2.6841987028 1.53420854 0.0504071288
C 3.0680864345 0.2084463489 0.1766509286
C 2.1211546127 -0.7962048267 0.1028555697
C 0.7775208133 -0.4899656793 -0.1067880997
C -0.2310258838 -1.5714228077 -0.2748562523
O -1.0902859549 -1.5352518862 -1.1320369043
O -0.1308329913 -2.622630324 0.5274465972
H -3.9546007763 1.1615429442 0.6210654835
H -3.55084205 0.4668763949 -0.9560664033
H -3.1591537046 2.1608996278 -0.642452939
H 1.0302296122 2.8818985589 -0.2385884731
H 3.4194402956 2.3203514401 0.1072142755
H 4.1045573627 -0.0440441819 0.330136516
H 2.4262234504 -1.8295616999 0.1670062865
H 0.5433792956 -2.5280226039 1.2255303407
*
