  17
        -23.95291674
 C         -3.0914635982       -0.4256297215        0.2671233512
 C         -1.6705436511        0.0352831568        0.5659890633
 C         -0.9744013322        0.5579118589       -0.6886709161
 C          0.4469271665        1.0348867918       -0.3955585631
 C          1.3749749686       -0.1119090603       -0.0851362069
 O          1.2993354307       -1.2249176580       -0.5290424885
 O          2.3528945097        0.2587574476        0.7553459219
 H         -3.6845770803        0.3962310357       -0.1286824126
 H         -3.0830830237       -1.2272956440       -0.4675238439
 H         -3.5727849215       -0.7925331588        1.1704300608
 H         -1.0964700730       -0.8003205995        0.9708866004
 H         -1.6953543736        0.8234152228        1.3228236723
 H         -0.9288262881       -0.2385826627       -1.4332837235
 H         -1.5511652612        1.3853774543       -1.1063639444
 H          0.4706864504        1.7378020979        0.4378861266
 H          0.8586176484        1.5396895528       -1.2738877062
 H          2.9560884049       -0.4828056343        0.9224575975
  17
        -23.95282722
 C         -3.4500502781       -0.2062606921       -0.0377118343
 C         -2.1951856887        0.5704265277        0.3407647154
 C         -0.9284332436       -0.1730712080       -0.0730752538
 C          0.3314713945        0.5990508135        0.3044223439
 C          1.5874555524       -0.1268763116       -0.0996597428
 O          1.6471310249       -1.1797614562       -0.6726847659
 O          2.6862178216        0.5552267090        0.2623276777
 H         -3.4569699266       -1.1788574663        0.4489144554
 H         -4.3426075058        0.3361421492        0.2650692599
 H         -3.4909562866       -0.3629079203       -1.1131477866
 H         -2.1825319761        0.7348099955        1.4207948207
 H         -2.2152634622        1.5498476557       -0.1429178171
 H         -0.9029009049       -1.1531237278        0.4064674062
 H         -0.9341497609       -0.3401849572       -1.1515329476
 H          0.3771713449        0.7696797036        1.3825486267
 H          0.3457920319        1.5800963445       -0.1765183986
 H          3.4847537729        0.0742766913       -0.0064081342
  17
        -23.95250396
 C         -1.8104873317       -1.0244333082       -0.3532646613
 C         -2.0737009875        0.4517127814       -0.0840573113
 C         -0.9287238825        1.1394959920        0.6587009751
 C          0.3823205411        1.1352290199       -0.1308232051
 C          1.1501807837       -0.1498703778        0.0435289043
 O          1.2397470721       -0.7850298569        1.0586721236
 O          1.7832899489       -0.5097282871       -1.0844102252
 H         -0.9894323944       -1.1517571005       -1.0548068620
 H         -1.5559294540       -1.5394934345        0.5699851835
 H         -2.6938143872       -1.4944397657       -0.7801366772
 H         -2.9794662739        0.5479737243        0.5188347169
 H         -2.2518816342        0.9676610202       -1.0310093610
 H         -1.2164078930        2.1718574385        0.8658321293
 H         -0.7560474991        0.6367805017        1.6122601150
 H          1.0354067408        1.9283930968        0.2431821763
 H          0.2136294033        1.3086379543       -1.1936920704
 H          2.2984542852       -1.3191885043       -0.9397510372
  17
        -23.95249789
 C         -2.9774772143       -0.1583465266        0.6976226310
 C         -1.6695401789       -0.3507601917       -0.0597102369
 C         -0.8696999894        0.9476774482       -0.1368625901
 C          0.4437187398        0.7698036466       -0.9070677300
 C          1.3699311254       -0.1781736353       -0.1907968068
 O          1.7423997636       -1.2438360843       -0.6016322798
 O          1.7580768380        0.3038570818        0.9987572561
 H         -2.7842647406        0.1730378475        1.7156045535
 H         -3.5961146855        0.5896639870        0.2063359180
 H         -3.5351015673       -1.0906325946        0.7402116352
 H         -1.8824427002       -0.7036638663       -1.0710666982
 H         -1.0711137228       -1.1183650211        0.4355705243
 H         -1.4682002802        1.7116442352       -0.6374940276
 H         -0.6455063934        1.3017284122        0.8710189026
 H          0.9483194298        1.7339556342       -0.9894905461
 H          0.2512670354        0.3747355494       -1.9047421529
 H          2.3455334672       -0.3276365277        1.4422475556
  17
        -23.95241786
 C         -3.3446908830       -0.1627180981        0.5521501876
 C         -2.1854991530        0.5874459647       -0.0921444659
 C         -0.8559804946       -0.1212882250        0.1530482498
 C          0.3135061839        0.6344213819       -0.4921748643
 C          1.5911564634       -0.1191217383       -0.2379366503
 O          2.0775192913       -0.9438861973       -0.9631038270
 O          2.1366233659        0.2090185396        0.9418384480
 H         -3.2000650903       -0.2384207938        1.6275836673
 H         -4.2833168036        0.3541271372        0.3676668026
 H         -3.4209471718       -1.1686891208        0.1457080896
 H         -2.1360327652        1.5996151263        0.3151814327
 H         -2.3584135036        0.6694770933       -1.1672324678
 H         -0.6796160147       -0.2026791356        1.2277213252
 H         -0.8992330129       -1.1312311330       -0.2602610876
 H          0.3928515257        1.6307759802       -0.0575005338
 H          0.1563036432        0.7084002172       -1.5682922663
 H          2.9386757183       -0.3128883711        1.1019495504
  17
        -23.95239177
 C         -3.3884301755        0.2321898681       -0.2635334026
 C         -2.1692919809        0.1737315291        0.6484962861
 C         -0.8770032257        0.0366027310       -0.1521027101
 C          0.3512448935       -0.0219887856        0.7654267889
 C          1.5910199502       -0.2038858850       -0.0689425205
 O          1.9403333917       -1.2276334609       -0.5912349754
 O          2.2770448203        0.9396182910       -0.2031304002
 H         -3.3211175720        1.0831085643       -0.9376813088
 H         -3.4605385976       -0.6731323005       -0.8618535778
 H         -4.2990205095        0.3300047505        0.3225799774
 H         -2.2647905000       -0.6754792078        1.3283674455
 H         -2.1246042775        1.0815042621        1.2542885208
 H         -0.9120593888       -0.8737014649       -0.7538603540
 H         -0.7788013791        0.8863168572       -0.8314239785
 H          0.2569354111       -0.8735620391        1.4404868978
 H          0.4378487736        0.8991192202        1.3409477129
 H          3.0555146048        0.8059922818       -0.7669636466
  17
        -23.95224207
 C         -2.9215200065        0.1056490366        0.9210310989
 C         -2.3186604118        0.3814594782       -0.4518627072
 C         -0.9378019680       -0.2450008861       -0.6368258395
 C          0.1197594831        0.3696943242        0.2753149073
 C          1.5050770800       -0.1171308326       -0.0582208325
 O          1.8114850644       -0.8109873585       -0.9886688208
 O          2.4084568149        0.3307972407        0.8291551967
 H         -3.9378152510        0.4897923136        0.9701988205
 H         -2.9511586931       -0.9643573847        1.1146718702
 H         -2.3431669751        0.5834016619        1.7076394779
 H         -2.2517617357        1.4604296083       -0.6092633848
 H         -2.9848436051       -0.0221748782       -1.2171528347
 H         -0.9936754147       -1.3184520983       -0.4474804518
 H         -0.6168602807       -0.1144914228       -1.6719277020
 H         -0.0690918248        0.1391189111        1.3246499813
 H          0.1246577220        1.4585089523        0.1770360832
 H          3.2955648323        0.0158351568        0.5946174758
  17
        -23.95219127
 C         -2.5232454440       -0.7325200861       -0.3938990374
 C         -1.7469707492        0.0168637434        0.6832472709
 C         -0.9143932415        1.1762246867        0.1344298082
 C          0.2325786727        0.7185648246       -0.7667304015
 C          1.2715101788       -0.0604475395       -0.0019182382
 O          1.6081142719        0.1326957913        1.1344464879
 O          1.8246738632       -1.0208861018       -0.7586095534
 H         -1.8539746553       -1.2453127946       -1.0800277886
 H         -3.1708995283       -1.4781643810        0.0611849423
 H         -3.1431179791       -0.0442720527       -0.9649519473
 H         -1.0904679879       -0.6759836691        1.2129360895
 H         -2.4543737422        0.4197719451        1.4113992799
 H         -1.5603783576        1.8519465411       -0.4295210477
 H         -0.4880871800        1.7294744608        0.9730997216
 H          0.7397207176        1.5940408882       -1.1816736257
 H         -0.1191361368        0.1109527482       -1.5992065402
 H          2.5088885140       -1.4945412331       -0.2594993260
  17
        -23.95219014
 C         -2.4197379086        0.1968978548        1.0467884977
 C         -1.7913897190       -0.5196557430       -0.1431924580
 C         -0.9857019053        0.4082998118       -1.0532562613
 C          0.2584257372        0.9834418016       -0.3752977706
 C          1.2662733071       -0.0901167142       -0.0542730611
 O          1.5200995594       -1.0482138428       -0.7322929831
 O          1.8944196649        0.1517281945        1.1064486515
 H         -1.6609020024        0.5711148381        1.7292099897
 H         -3.0259161968        1.0353101793        0.7096722295
 H         -3.0594981655       -0.4863963413        1.6003469142
 H         -2.5848453298       -0.9765332632       -0.7386731308
 H         -1.1439395561       -1.3236578037        0.2118806573
 H         -0.6649362786       -0.1541343451       -1.9318944971
 H         -1.6205908071        1.2318069760       -1.3859205689
 H          0.0132191261        1.5203506906        0.5397620863
 H          0.7500839840        1.6838163666       -1.0559890055
 H          2.5555159411       -0.5358862339        1.2848734853
  17
        -23.95208077
 C         -1.8483614625       -1.0041599579       -0.0516195414
 C         -2.0137039011        0.4877627805        0.2082425188
 C         -0.8334231055        1.3238244899       -0.2854523878
 C          0.4627849630        1.0611609015        0.4878070908
 C          1.1552150158       -0.2229868751        0.1123385119
 O          1.6073308300       -1.0218020098        0.8895625481
 O          1.2735288352       -0.3758445233       -1.2138590305
 H         -1.0195337353       -1.4101078978        0.5221923542
 H         -2.7503733813       -1.5387344992        0.2377821920
 H         -1.6644993077       -1.1884446209       -1.1081433177
 H         -2.1516095319        0.6558702823        1.2787992414
 H         -2.9156356580        0.8381153960       -0.2994973389
 H         -0.6619365982        1.1296092629       -1.3451073105
 H         -1.0869284228        2.3802254477       -0.1737581246
 H          0.2790405316        1.0483085781        1.5628240344
 H          1.1736160176        1.8625992853        0.2694309097
 H          1.7410966469       -1.2016021018       -1.4132493435
  17
        -23.95192702
 C         -2.4349910680       -0.6473018583        0.3739659637
 C         -1.6683177533        0.0890890076       -0.7184226425
 C         -0.8098184261        1.2363520402       -0.1841252001
 C          0.2742607224        0.7797481055        0.8006357449
 C          1.1928322171       -0.2330045797        0.1692211808
 O          1.3031940988       -1.3832779416        0.4981829130
 O          1.9071776538        0.2949485312       -0.8350509457
 H         -1.7559555583       -1.1995576129        1.0177291044
 H         -3.0042487800        0.0536644182        0.9811649228
 H         -3.1284030519       -1.3577625748       -0.0696979394
 H         -2.3783815826        0.5033288850       -1.4383543587
 H         -1.0347690902       -0.6222948942       -1.2525265593
 H         -0.3273542549        1.7399798402       -1.0239880250
 H         -1.4506210164        1.9611683011        0.3224433396
 H         -0.1716235992        0.3358128067        1.6893331279
 H          0.8735488369        1.6436884389        1.0929461604
 H          2.4822790285       -0.3786434672       -1.2302197132
  17
        -23.95181362
 C         -2.8503606926        0.1913709933        0.9935223430
 C         -2.3125148637        0.1976740218       -0.4324410358
 C         -0.8173774564        0.5040304120       -0.5102689249
 C          0.0447750594       -0.5951363970        0.1267953953
 C          1.4964451479       -0.2738498271       -0.1029547742
 O          2.1736740382       -0.6820093418       -1.0072517909
 O          1.9708285824        0.5745476331        0.8208013301
 H         -2.4231362250       -0.6243113228        1.5707797659
 H         -2.6158796663        1.1288377909        1.4929917878
 H         -3.9308362797        0.0684562293        0.9865284259
 H         -2.8457362288        0.9574445806       -1.0082099590
 H         -2.5082573053       -0.7692691157       -0.9004807198
 H         -0.5302612804        0.6065152079       -1.5592978379
 H         -0.6126648154        1.4522210809       -0.0088493617
 H         -0.1808325952       -1.5556608149       -0.3366052116
 H         -0.1397080977       -0.6411654841        1.1988917942
 H          2.8968152198        0.7957109387        0.6343359278
  17
        -23.95177963
 C         -2.8487237842        0.4864488506        0.9297924341
 C         -2.3371215158       -0.0981694049       -0.3816045272
 C         -0.8665411182        0.2198281164       -0.6477771992
 C          0.0767201688       -0.4509633316        0.3598608867
 C          1.5022787385       -0.2154294869       -0.0628252547
 O          2.0503388163       -0.7315598602       -0.9990510276
 O          2.1156769378        0.6824130478        0.7206939483
 H         -2.6708005323        1.5591274524        0.9633601016
 H         -3.9181775461        0.3142948466        1.0260657990
 H         -2.3559131781        0.0277370771        1.7828840607
 H         -2.9281117835        0.3092615673       -1.2048234740
 H         -2.4780878370       -1.1809761080       -0.3780556756
 H         -0.6003581954       -0.1265146737       -1.6486782846
 H         -0.7173500862        1.3013550779       -0.6141776395
 H         -0.1106217294       -1.5257421487        0.3652587976
 H         -0.0667444548       -0.0421362572        1.3582224006
 H          3.0235687921        0.8383264973        0.4156431578
  17
        -23.95177813
 C         -2.8387400559        0.7522781975        0.7648313711
 C         -2.3402869278       -0.2067552858       -0.3099044966
 C         -0.8907370927       -0.6423630148       -0.1004864621
 C          0.1051285001        0.5142360349       -0.2617434285
 C          1.5077817107       -0.0267893176       -0.1840073246
 O          2.0588830383       -0.6715532324       -1.0347689456
 O          2.0942753726        0.2671424850        0.9847934217
 H         -2.6987757918        0.3214864163        1.7538302032
 H         -2.3081467357        1.6997514036        0.7225532424
 H         -3.8984614324        0.9534670280        0.6266280176
 H         -2.4392785510        0.2615410407       -1.2913274608
 H         -2.9684776838       -1.1002638068       -0.3051965705
 H         -0.7820395401       -1.0729320342        0.8974394644
 H         -0.6394628375       -1.4147233667       -0.8304998416
 H         -0.0307263923        1.2552484263        0.5236845388
 H         -0.0360319620        0.9752989814       -1.2403369974
 H          2.9858726998       -0.1140628303        1.0246688982
  17
        -23.95170526
 C         -3.3003816473        0.5234589491        0.7264508000
 C         -2.2654347869       -0.0997854172       -0.2019458779
 C         -0.8421436920        0.1944511176        0.2661877919
 C          0.1923402552       -0.4323881286       -0.6629570115
 C          1.6247904581       -0.1771272258       -0.2689048886
 O          2.5753044484       -0.4155776823       -0.9659868027
 O          1.7571127877        0.3388426491        0.9592344841
 H         -4.3073666861        0.3056719058        0.3788476470
 H         -3.1929130696        0.1312824108        1.7352682740
 H         -3.1766405026        1.6033920991        0.7652157814
 H         -2.4029273685        0.2907674719       -1.2128061784
 H         -2.4180625610       -1.1807573216       -0.2412452678
 H         -0.6879716290        1.2743616583        0.3035454722
 H         -0.7039025620       -0.1926817843        1.2767639110
 H          0.0664716200       -0.0711944213       -1.6863455589
 H          0.0628566045       -1.5182208862       -0.6939199198
 H          2.6959415702        0.4728746976        1.1641550949
  17
        -23.95100080
 C         -3.0233354569       -0.0447318817       -0.4008572593
 C         -2.1955761701        0.4705303360        0.7710306704
 C         -0.7335829931        0.7324037666        0.4079725218
 C          0.0284607414       -0.5501091520        0.0891402431
 C          1.4921977190       -0.3493107812       -0.2086942433
 O          2.2249699164       -1.2093422991       -0.6216311909
 O          1.9258444710        0.8931603956        0.0374634860
 H         -4.0701853377       -0.1216060449       -0.1164522484
 H         -2.9483925048        0.6348152293       -1.2469378304
 H         -2.6889555183       -1.0290475684       -0.7179014674
 H         -2.2421596710       -0.2476742537        1.5927247066
 H         -2.6336472388        1.4058723777        1.1260451652
 H         -0.6879951701        1.4033844056       -0.4516273184
 H         -0.2443883964        1.2350853945        1.2438488746
 H         -0.4029470492       -1.0626935248       -0.7725827104
 H         -0.0300475330       -1.2433917109        0.9333378625
 H          2.8722667919        0.9604543156       -0.1657253256
