! r2scan-3c def2/J RI DEFGRID2 scfconv6 printgap
%output
    printlevel normal
end
* xyz 0 1
C 2.0486467396 -1.1398955309 -0.0353938753
C 1.4544538823 0.2760939199 -0.0737440763
C 1.6701958631 0.9874205622 1.2573237987
C 0.0132306522 0.1634175302 -0.5428143603
O -0.2164756598 0.0342592714 -1.7310892625
C -1.1155852237 0.1519280637 0.4708230664
C -1.4998989377 -1.3115495195 0.7263255079
C -2.313950685 0.9263187979 -0.07857735
H 1.607366944 -1.7186353885 0.7717602697
H 3.1213974344 -1.081606111 0.1270309582
H 1.864434733 -1.6527843388 -0.9765733259
H 1.9745748504 0.8281516268 -0.8654257647
H 2.7362831628 1.13735282 1.41001842
H 1.1866216856 1.9610805728 1.262277848
H 1.2938709621 0.3948061005 2.0868642835
H -0.7920319416 0.6041579806 1.4074560663
H -1.7573582123 -1.7975340804 -0.2122629127
H -0.6809768683 -1.8567172776 1.1870171069
H -2.3604717 -1.3518373478 1.388529403
H -2.0580107299 1.9742260066 -0.2184424649
H -2.6104591703 0.5167336284 -1.0415559695
H -3.1526395365 0.8584360097 0.6086306625
*
