! r2scan-3c def2/J RI DEFGRID2 scfconv6 printgap
%output
    printlevel normal
end
* xyz 0 1
C -3.1037593697 0.7132951889 0.009975986
C -1.6675878086 0.4910851235 -0.4463818122
C -0.865955604 -0.2880903127 0.6076237288
C 0.535022368 -0.5032945784 0.1060377836
O 0.9205876037 -1.4862377909 -0.4924081245
O 1.3140562224 0.5412636655 0.363471361
C 2.6634531617 0.4946697468 -0.1071527081
H -3.6549946561 1.2656847112 -0.7459952601
H -3.6028181152 -0.2381270853 0.174723397
H -3.1248884431 1.2799584662 0.9371227453
H -1.1822840737 1.4530203671 -0.621279634
H -1.6594271069 -0.0686446607 -1.3840615179
H -1.3291057163 -1.2591041064 0.7801476807
H -0.8291699752 0.2831417517 1.5343104806
H 2.6772173984 0.4951367351 -1.1976072488
H 3.1527400227 -0.4109887666 0.2531763858
H 3.1431599725 1.3839216817 0.2891117292
*
