  8
        -24.04968208
 C         -0.4627563890       -0.9493885391        0.0000508994
 C          0.7536175788       -0.0363675732        0.0000256469
 F          0.8085368156        0.7519339952       -1.0745227585
 F          1.8815421506       -0.7679493841       -0.0003874770
 F          0.8090205048        0.7514739513        1.0748375796
 Cl        -1.9483887597        0.0289335453        0.0000099544
 H         -0.4437514144       -1.5668190670       -0.8984142047
 H         -0.4438350982       -1.5668254095        0.8985213943
