  9
  -9.44226539000000       0.333335684881350      !mtd9
 C          1.2475794948        0.1790927600       -0.0000001572
 C         -0.1070252811       -0.4460756763       -0.0000127818
 C         -1.2425460704        0.2255268297        0.0000072343
 H          1.1768055101        1.2639526161        0.0007097688
 H          1.8079121506       -0.1377762530       -0.8794694797
 H          1.8083136590       -0.1388232212        0.8788098974
 H         -0.1156821202       -1.5289149450        0.0000797720
 H         -2.1995805385       -0.2677991439       -0.0000304152
 H         -1.2623463070        1.3033871961       -0.0000315610
  9
  -9.44226538000000       0.333332157559325      !md2
 C          1.2475433170        0.1790828060        0.0000014337
 C         -0.1070154738       -0.4460389888       -0.0000111898
 C         -1.2425211833        0.2255184111        0.0000088251
 H          1.8079226789       -0.1382394768       -0.8792404768
 H          1.8081708336       -0.1386179396        0.8789148991
 H          1.1769750853        1.2639589573        0.0002122481
 H         -0.1157109341       -1.5288441161        0.0003104931
 H         -2.1995312146       -0.2678297631       -0.0001004563
 H         -1.2623864176        1.3033803313       -0.0000856114
  9
  -9.44226538000000       0.333332157559325      !mtd10
 C          1.2475679157        0.1790850312        0.0000075152
 C         -0.1070063115       -0.4460513765       -0.0000051087
 C         -1.2425468118        0.2255259454        0.0000149068
 H          1.8080802073       -0.1385681763        0.8790186929
 H          1.1768574777        1.2639369156        0.0002633387
 H          1.8080277001       -0.1381461849       -0.8792109176
 H         -0.1156522066       -1.5288795874       -0.0004356011
 H         -2.1995305850       -0.2678630330       -0.0000558279
 H         -1.2624394760        1.3033593786        0.0002139950
