! wb97x-v def2-tzvp def2/J RIJCOSX DEFGRID2 scfconv7 GCP(DFT/TZ) printgap
%output
    printlevel normal
end
* xyz 0 1
C 2.5445577956444665 -0.08064874156626624 0.02877513263295015
C 1.2810866532897314 0.760339461981696 -0.05032803676062234
C -2.4420467007524503e-05 -0.03263975274972007 -0.00010807701448299515
O -2.0483364530202563e-05 -1.2597320607260056 0.000907098736725516
C -1.2810762387683332 0.7604253108056576 0.050213695999250026
C -2.544547367353671 -0.08060687839019842 -0.028390375928084334
H 2.5920418888174126 -0.7997639189643291 -0.7936976640589349
H 3.4299113841186006 0.5584319477865102 -0.027054726166413974
H 2.587511671618592 -0.63983343065947 0.9680119638019488
H 1.240605968766387 1.5064840738980838 0.753759920464574
H 1.251580851460918 1.344341937186841 -0.9807483529589166
H -1.2405995942558388 1.5059843228335523 -0.7543989142108701
H -1.2515191151100953 1.3450960363488003 0.9802321667838677
H -3.429880458986719 0.5585525897584228 0.026823940584146416
H -2.5921799025222594 -0.7991261463706533 0.7945886811355826
H -2.587395133726665 -0.6404687257624093 -0.9672340921105977
*
