! r2scan-3c def2/J RI DEFGRID2 scfconv6 printgap
%output
    printlevel normal
end
* xyz 0 1
C 1.7162983285 -0.4582397155 1.2070913154
C 1.1776597909 0.4748415215 0.1234374491
H 0.8646966029 1.4210239385 0.5763891411
C 0.0103050867 -0.1443923437 -0.657768903
C -1.2494756893 -0.4495162581 0.1598509629
C -1.8616871525 0.8138241869 0.7604782068
C -2.2734117019 -1.1474934299 -0.7358083362
O 2.2111130568 0.8602626 -0.7719835532
H 0.9879130696 -0.5759104815 2.0028444442
H 1.9428551934 -1.4367219477 0.7885408899
H 2.6256411835 -0.0369640143 1.6292365579
H -0.2492202266 0.544431185 -1.4660549934
H 0.3625854837 -1.0738542877 -1.114525512
H -0.987275094 -1.1330868679 0.973350463
H -2.7968196761 0.5747979283 1.2615298437
H -2.0671480371 1.5424807773 -0.020604465
H -1.194556559 1.2672695206 1.4883866059
H -3.165440955 -1.400481175 -0.1680406234
H -2.5629573461 -0.4961570275 -1.5575282291
H -1.8613268484 -2.0635972726 -1.1522392644
H 2.5593697435 0.0669361693 -1.2029127641
*
