! r2scan-3c def2/J RI DEFGRID2 scfconv6 printgap
%output
    printlevel normal
end
* xyz 0 1
C -3.0326089955 -0.6661270804 2.0505824192
C -3.0016436706 -1.4576378638 0.7478516767
C -2.7195569613 -0.5685562268 -0.4662349492
H -3.4821749524 0.2159885415 -0.5121810585
C -2.729690769 -1.3518660695 -1.7750438089
N -1.4483706424 0.162387495 -0.3064427672
C -0.2575820312 -0.5502337097 -0.2034479974
O -0.2233111383 -1.7663324496 -0.2559274645
C 0.9276869687 0.2679047555 -0.0296241159
C 0.8855853236 1.6214570472 0.0277255124
N -0.3434346844 2.2039769978 -0.0866908953
C -1.5277739294 1.5349078838 -0.2500920115
O -2.5742134931 2.1536410284 -0.3390974171
C 2.039235618 2.5373767982 0.20223824
Br 2.5480493938 -0.7174743334 0.1118512708
H -3.7251826753 0.1696298829 1.9727428012
H -3.3482927786 -1.3058050736 2.8697900057
H -2.0462699207 -0.2719662876 2.2906381554
H -2.2492611439 -2.2449004112 0.8061304529
H -3.9714706653 -1.9278845554 0.5846003305
H -3.7116066515 -1.7915321902 -1.9185729975
H -2.5169886335 -0.6909980627 -2.6123009073
H -1.98880296 -2.1463220774 -1.7517269733
H -0.4171667003 3.2159254302 -0.0478943551
H 2.1031905402 3.2152028568 -0.6464401841
H 2.9683888281 1.9822421113 0.2823545014
H 1.903861433 3.1338088869 1.1021273489
*
