! r2scan-3c def2/J RI DEFGRID2 scfconv6 printgap
%output
    printlevel normal
end
%cpcm
    smd true
    smdsolvent "water"
end
* xyz 0 1
C -2.1902324793 0.6841279204 -1.0038589857
C -1.8705685809 0.1762015532 0.4038790224
C -0.4502179876 -0.3238928578 0.4691272925
O -0.1323236228 -1.4853692876 0.6227049814
O 0.4223163417 0.6658628593 0.3348750322
C 1.8231912098 0.3472577702 0.3239377498
C 2.2855642852 -0.0530635254 -1.0687688279
H -3.2159956425 1.0380945196 -1.0410357809
H -1.524525665 1.5013665197 -1.2672971015
H -2.0707330617 -0.1148079367 -1.7317069317
H -2.5329549383 -0.644671624 0.6764456354
H -1.9803302101 0.991164694 1.1193315425
H 2.3144401117 1.2613040043 0.6584652958
H 2.0020424397 -0.4639134079 1.036243947
H 3.3567955938 -0.2251241197 -1.0563318523
H 1.7849204354 -0.9678607259 -1.3781651905
H 2.0567150057 0.7347803332 -1.7811724655
*
