! pbe def2-sv(p) def2/J RI DEFGRID1 loosescf d4 GCP(DFT/SV(P)) printgap
%output
    printlevel normal
end
* xyz 0 1
C -2.3991750181 -0.2694032462 -1.2066969075
C -1.9327320862 0.1721977587 0.1784076039
C -1.8312913087 -1.0191765268 1.1281800112
C -0.5918545363 0.9034718592 0.084590874
O 0.412893426 0.0155068402 -0.4219945724
C 1.6546234804 0.1368105982 0.0248625553
O 1.9963086944 0.9640225345 0.8467570169
C 2.5735994173 -0.858021764 -0.6190685631
H -1.6678831319 -0.9404162834 -1.6490652381
H -2.5211860581 0.590186391 -1.8606256786
H -3.3511005803 -0.7879219418 -1.1346052657
H -2.6499844529 0.8915345794 0.5860659344
H -1.493095257 -0.6985845211 2.1110867902
H -1.1248017325 -1.7489636108 0.7402017642
H -2.8002492884 -1.4986114674 1.2347222741
H -0.6619973843 1.7526632529 -0.6024752965
H -0.2681421996 1.2700963919 1.0644441589
H 2.009966705 -1.7170314648 -0.9664708523
H 3.34403982 -1.1508682018 0.087342189
H 3.0526420572 -0.379337903 -1.4706705577
*
