! r2scan-3c def2/J RI DEFGRID2 scfconv6 printgap
%output
    printlevel normal
end
* xyz 0 1
C -3.2239525231 1.0300173091 0.0591282448
C -2.1787759625 -0.0024131022 -0.3631429634
C -2.6028191916 -1.3906340418 0.1117515923
C -0.8037390114 0.3960727432 0.1875978236
C 0.3332104508 -0.4646896958 -0.3616352174
C 1.7566820392 0.0040104404 -0.0045051447
C 2.7430957842 -1.03242102 -0.556257239
C 2.0672585468 1.360612832 -0.6421332772
C 1.9368944969 0.0983456469 1.5124343564
H -3.2991997886 1.0685113105 1.1438353348
H -4.2008560365 0.7722266427 -0.3432917299
H -2.9555321641 2.0203167399 -0.3017815961
H -2.1244283312 -0.0105965153 -1.4581157386
H -3.6032765752 -1.6219227602 -0.2471224027
H -1.9265258101 -2.1558590836 -0.2588300198
H -2.6109232648 -1.431244702 1.1990040578
H -0.625281876 1.4397376908 -0.0762916615
H -0.8307408456 0.3249536523 1.2762002782
H 0.2484207328 -0.4984465453 -1.4512468445
H 0.2149003114 -1.4852206794 0.0077819967
H 2.6325474652 -1.130092917 -1.6339871858
H 3.7676122864 -0.7358322648 -0.3432015007
H 2.5687185714 -2.0064794075 -0.1045537946
H 1.4419813962 2.1448193858 -0.2238701905
H 3.1059819205 1.6289148269 -0.4624939969
H 1.9038322252 1.3242297786 -1.7168752008
H 1.3269002391 0.8955231882 1.9284440783
H 2.976755172 0.3079575582 1.7535677551
H 1.6571747406 -0.838400605 1.9892508971
*
