! pbe def2-sv(p) def2/J RI DEFGRID1 loosescf d4 GCP(DFT/SV(P)) printgap
%output
    printlevel normal
end
* xyz 0 1
C -2.2943945525 -0.9600028615 0.1128437363
C -2.4566563283 0.5488245477 0.2570519866
C -1.2746896919 1.3564330646 -0.2831828412
C 0.0187566795 1.1768816246 0.4945483125
Br 1.0903879332 -0.3720072586 -0.1075790605
H -1.5025832535 -1.3387467711 0.7534642961
H -3.2176753054 -1.4618741759 0.3915183875
H -2.057912374 -1.2242048397 -0.9156156854
H -2.6102285423 0.7987720499 1.3093746273
H -3.348718701 0.8606104637 -0.2896260245
H -1.1114603712 1.1125409168 -1.3349452766
H -1.5329332411 2.4169889136 -0.2274387852
H -0.1627404475 1.011806274 1.5550225844
H 0.6847027875 2.0270057749 0.3600977301
*
