  17
        -28.17158150
 C          2.2909893788        1.4756321451        0.3836707274
 C          2.1420810559        0.0793838157       -0.2077737989
 C          0.7994638246       -0.5557702501        0.1508018958
 H          0.6302196341       -0.4946324587        1.2339125710
 C          0.6950196879       -2.0071751553       -0.3057673678
 O         -0.2015300260        0.2341365794       -0.5021390028
 N         -1.4717467460        0.2303819405        0.0299072427
 O         -1.6595228215       -0.4315491920        0.9989852424
 O         -2.2319736292        0.9132328087       -0.5668588306
 H          1.5092710289        2.1309064403        0.0085210914
 H          3.2537074112        1.8980558202        0.1091946001
 H          2.2268780660        1.4417595688        1.4692544834
 H          2.9340958709       -0.5705385291        0.1653708786
 H          2.2188778212        0.1285137869       -1.2944270780
 H         -0.2683472919       -2.4261116188       -0.0244216766
 H          0.8064962480       -2.0651911429       -1.3856744615
 H          1.4764115885       -2.5959356064        0.1645935803
  17
        -28.17109372
 C          1.7904837171        1.4509360971        0.6051869657
 C          2.0017650982        0.1037348266       -0.0763823969
 C          0.7670508319       -0.7960580579        0.0189898973
 H          0.4799957455       -0.9185768177        1.0709951778
 C          0.9881114690       -2.1584054997       -0.6263426269
 O         -0.3220017587       -0.1679816817       -0.6664138224
 N         -1.3658967876        0.3559571957        0.0694110797
 O         -1.3361511654        0.2300242104        1.2498581839
 O         -2.1866244986        0.8777276548       -0.6043437325
 H          2.7107392061        2.0283611685        0.5840563944
 H          1.4916985619        1.3154886414        1.6426432566
 H          1.0218407280        2.0274741931        0.0947400659
 H          2.8341074305       -0.4215953569        0.3930540823
 H          2.2412110326        0.2560636180       -1.1298755118
 H          0.0877206248       -2.7626212562       -0.5516321609
 H          1.2377765198       -2.0338741002       -1.6763731570
 H          1.8009360603       -2.6742059518       -0.1244042734
  17
        -28.17107186
 C          1.9538184745        1.4649914694        0.5498226593
 C          2.0596107327        0.1019983249       -0.1240424738
 C          0.7826858112       -0.7228612043        0.0469470219
 H          0.5174944167       -0.7796496793        1.1101732278
 C          0.9073954974       -2.1265883815       -0.5340392574
 O         -0.2765054441       -0.0446902264       -0.6381251666
 N         -1.4091182629        0.3171616562        0.0626074291
 O         -1.4708936666        0.0273660323        1.2126870999
 O         -2.1988824241        0.8913596800       -0.6054051351
 H          1.7394346541        1.3537774011        1.6108660829
 H          1.1632600297        2.0579239391        0.0954545857
 H          2.8879271713        2.0095637528        0.4428240701
 H          2.8859886886       -0.4630279237        0.3081005927
 H          2.2495620157        0.2299020632       -1.1904843825
 H          1.7046592967       -2.6633594973       -0.0291771920
 H         -0.0221133900       -2.6748786463       -0.4018112945
 H          1.1315197840       -2.0693653779       -1.5957440046
  17
        -28.17091689
 C          3.1423912310        0.5208067791        0.5370891304
 C          1.9124449762        0.6787143920       -0.3470099952
 C          0.7272761862       -0.1523740706        0.1458714059
 H          0.5556756805        0.0370993809        1.2139349939
 C          0.8927184013       -1.6484346788       -0.0914124727
 O         -0.4103380266        0.3327183960       -0.5802826568
 N         -1.6582904012        0.1377894863       -0.0252632458
 O         -1.7100337740       -0.4094216786        1.0281253679
 O         -2.5391136393        0.5607543841       -0.6917877547
 H          3.5161508412       -0.4990772451        0.5131712223
 H          2.9107336654        0.7801634683        1.5674787651
 H          3.9328799438        1.1792724827        0.1874328608
 H          2.1441153997        0.3874162819       -1.3719699334
 H          1.6047725683        1.7256034166       -0.3600979637
 H          0.9998961899       -1.8448515636       -1.1554859222
 H          1.7739357207       -2.0083897917        0.4290922417
 H          0.0286073624       -2.1904521109        0.2857822544
  17
        -28.17080774
 C          2.8236007427        0.6157955331        0.7466477505
 C          1.5355975118        0.7157558372       -0.0596694936
 C          0.6861298969       -0.5554202614        0.0332962375
 H          0.4612188937       -0.7683380590        1.0869173328
 C          1.3288139846       -1.7677388883       -0.6237435354
 O         -0.5557233447       -0.3545681581       -0.6556171264
 N         -1.5756689278        0.2806375202        0.0204389440
 O         -1.3648088971        0.6185151798        1.1401222911
 O         -2.5592905998        0.4050811755       -0.6248126059
 H          2.6052010966        0.3675629301        1.7825917367
 H          3.3442164059        1.5694347622        0.7261594495
 H          3.4869720425       -0.1413110876        0.3381173697
 H          1.7615432395        0.9095195823       -1.1098894551
 H          0.9462329408        1.5529525233        0.3211826761
 H          1.5848537675       -1.5391227710       -1.6543538833
 H          2.2252239128       -2.0506604285       -0.0822502570
 H          0.6344219612       -2.6033356508       -0.6156191627
  17
        -28.17043806
 C          2.2750701456        1.1306792761       -0.1288457660
 C          1.5799303601        0.1645525173        0.8235845041
 C          0.6576748887       -0.8309646219        0.1087939672
 H          0.1685876187       -1.4596326364        0.8654118105
 C          1.3687014173       -1.7070649761       -0.9124533749
 O         -0.3641143977       -0.1347079999       -0.6149907666
 N         -1.4601783136        0.3137878241        0.0883615919
 O         -1.4996594770        0.0790066834        1.2529079280
 O         -2.2455228406        0.8887048826       -0.5846702811
 H          3.0068864842        0.6147060102       -0.7440159271
 H          2.7907326098        1.9007375643        0.4388462848
 H          1.5502053820        1.6116394279       -0.7813871253
 H          0.9826512254        0.7279670293        1.5440025208
 H          2.3187700555       -0.4072165054        1.3861767239
 H          0.6817404918       -2.4488434961       -1.3101385388
 H          1.7316982027       -1.0992921075       -1.7349356975
 H          2.2041327978       -2.2135991068       -0.4391622377
  17
        -28.17034189
 C          2.6372641497        0.8756695338       -0.6314650377
 C          2.0065965869        0.3721537320        0.6611193621
 C          0.7263129091       -0.4363338979        0.4372420289
 H          0.3388992439       -0.7711788297        1.4093353803
 C          0.9058749136       -1.6450435206       -0.4753060620
 O         -0.2285304838        0.4711935767       -0.1270475293
 N         -1.5645060064        0.1764464229        0.0320910234
 O         -1.8412866337       -0.8076483493        0.6381826461
 O         -2.2828612213        0.9722935290       -0.4686140865
 H          3.0172321103        0.0522850472       -1.2295630811
 H          3.4667967350        1.5389561657       -0.4011232820
 H          1.9047031402        1.4273874049       -1.2138207189
 H          1.7574023829        1.2253133678        1.2943374268
 H          2.7118028035       -0.2586217059        1.2040789899
 H          0.0039865141       -2.2527979626       -0.4763759715
 H          1.1133063463       -1.3213624067       -1.4913019516
 H          1.7313006733       -2.2519979302       -0.1162943439
  17
        -28.17012384
 C          2.0773645490        1.5112208816       -0.0020614814
 C          1.7286200648        0.1088736056       -0.4878308388
 C          0.8747943434       -0.6553263539        0.5279657926
 H          1.3829089749       -0.6528880177        1.4989469802
 C          0.5965248863       -2.0939589783        0.1027735804
 O         -0.3324054450        0.0461180965        0.8629420664
 N         -1.2959627236        0.2720438341       -0.0951984729
 O         -1.1087710384       -0.1400083673       -1.1934740960
 O         -2.2261379510        0.8743975324        0.3218633329
 H          1.1791287429        2.0993033838        0.1721626635
 H          2.6813424776        2.0245272998       -0.7453629426
 H          2.6387175829        1.4651394913        0.9285251156
 H          2.6427696991       -0.4661454377       -0.6405949848
 H          1.2056251336        0.1623891330       -1.4434282487
 H         -0.0863440302       -2.5645542757        0.8066686486
 H          0.1630880966       -2.1309406307       -0.8930496627
 H          1.5287045638       -2.6507638897        0.0982501468
  17
        -28.16989355
 C          3.0040813527        0.5964175311       -0.1307721780
 C          1.4904110406        0.7159724373       -0.2538505417
 C          0.7656218607       -0.3098208989        0.6235326453
 H          1.1884888518       -0.2794266435        1.6340811410
 C          0.8353018153       -1.7352201470        0.0867398094
 O         -0.5893577283        0.0867987956        0.8931619344
 N         -1.4981591938        0.1861456698       -0.1388743706
 O         -1.1248675113       -0.0508039892       -1.2410970705
 O         -2.5763779278        0.5099881739        0.2262278733
 H          3.4827667277        1.3754437931       -0.7179760669
 H          3.3508477946       -0.3654754315       -0.4980693357
 H          3.3169919605        0.7062514428        0.9051110616
 H          1.1965762579        0.5859712907       -1.2961363040
 H          1.1822283809        1.7140417976        0.0675528785
 H          1.8598508086       -2.0891899382        0.1388006646
 H          0.2131614767       -2.3893085592        0.6937629013
 H          0.4996922531       -1.7811915262       -0.9459424389
  17
        -28.16959986
 C          2.5662494109        1.0104446208       -0.3884268560
 C          1.8345475318        0.3009250153        0.7444303225
 C          0.7053820465       -0.6136013972        0.2565289546
 H          0.2220687439       -1.0734595460        1.1282770595
 C          1.1611296998       -1.7032035125       -0.7069540952
 O         -0.2714172310        0.1937580784       -0.4120413663
 N         -1.5623912155        0.2340200105        0.0747405300
 O         -1.8158988872       -0.4110760465        1.0391379253
 O         -2.2711126304        0.9353737176       -0.5616201874
 H          1.8547804975        1.5232630030       -1.0300676501
 H          3.1354109102        0.3059701310       -0.9881604592
 H          3.2561921178        1.7439682771        0.0204552357
 H          1.4002461415        1.0459282231        1.4147234985
 H          2.5323911571       -0.3043666802        1.3245542384
 H          0.3396160128       -2.3828205715       -0.9201138525
 H          1.4951205434       -1.2609029751       -1.6403717289
 H          1.9756485211       -2.2665213919       -0.2621211392
  17
        -28.16903333
 C          2.7909407301        1.0806612911        0.6567948599
 C          2.0307785855        0.3434094989       -0.4384771522
 C          0.7686081596       -0.3534551974        0.0903839230
 H          0.6406144871       -0.1511343222        1.1615429275
 C          0.7728932174       -1.8605944681       -0.1405155668
 O         -0.3363744021        0.2451124576       -0.6009718378
 N         -1.5791252441        0.1819176611       -0.0073436774
 O         -1.6559963607       -0.3613808840        1.0469768080
 O         -2.4307309997        0.7003599510       -0.6444311751
 H          2.1674304304        1.8474541685        1.1101540202
 H          3.6732254190        1.5602667729        0.2411865550
 H          3.1101152929        0.3895426951        1.4336379209
 H          2.6819735845       -0.3954581690       -0.9052803902
 H          1.7219583839        1.0484575632       -1.2113541403
 H          0.8187118278       -2.0724078109       -1.2060602540
 H          1.6377313627       -2.2979152853        0.3490974473
 H         -0.1240852681       -2.3147008087        0.2746977954
  17
        -28.16884100
 C          2.1952951664        1.0736650757        0.9946075884
 C          1.7156239558        0.4142522665       -0.2930656512
 C          0.7205539361       -0.7316258107       -0.0317105303
 H          0.5487135615       -0.8308569967        1.0477235604
 C          1.1800367701       -2.0631730142       -0.6078747359
 O         -0.5427772310       -0.4564539339       -0.6508190872
 N         -1.4260036649        0.3601298323        0.0237439032
 O         -1.0904969828        0.7743285572        1.0855760011
 O         -2.4370622339        0.5424251051       -0.5630678305
 H          1.3544788542        1.4738733466        1.5555997718
 H          2.8779312755        1.8877804203        0.7656715690
 H          2.7178725894        0.3531185730        1.6194955926
 H          2.5705605770        0.0275368921       -0.8487923436
 H          1.2302396415        1.1596215288       -0.9267052835
 H          0.4406308990       -2.8347094012       -0.4110433933
 H          1.3116709647       -1.9742960137       -1.6825760814
 H          2.1225240653       -2.3492362303       -0.1508622582
  17
        -28.16555323
 C          2.1465386420        1.0572200143       -0.5489483084
 C          1.7314525151        0.3338950437        0.7288285749
 C          0.7550558731       -0.8457909589        0.5692363238
 H          0.9122012086       -1.5268996620        1.4139203091
 C          0.8979798994       -1.6349703197       -0.7261360420
 O         -0.6093266938       -0.4668716013        0.8336518666
 N         -1.3433730784        0.3007354559       -0.0434977523
 O         -0.8287367751        0.6683601468       -1.0479944112
 O         -2.4462818841        0.4992901170        0.3387272152
 H          2.7050232584        0.3950079416       -1.2045450625
 H          2.7899390268        1.8938838196       -0.2872619240
 H          1.2885301265        1.4417811639       -1.0909877081
 H          1.2754802226        1.0449330895        1.4219176207
 H          2.6307483696       -0.0537056788        1.2113951903
 H          0.7240217335       -1.0113735652       -1.5974086368
 H          1.9030326911       -2.0430884929       -0.7782859966
 H          0.1873883638       -2.4588327794       -0.7325968521
  17
        -28.16485394
 C          1.7890014269        1.2065952790       -0.6610903829
 C          1.9323290994        0.2254447674        0.4973424412
 C          0.8085556247       -0.8109167645        0.6460982097
 H          0.9776480295       -1.3424135013        1.5914248073
 C          0.7577101373       -1.8448401905       -0.4739608396
 O         -0.4570956064       -0.1926178149        0.9300014021
 N         -1.2852442502        0.3149952249       -0.0509780167
 O         -0.9573458679        0.2243360589       -1.1868983010
 O         -2.2723116908        0.7899808972        0.3996308889
 H          0.9583121318        1.8894421616       -0.4997782629
 H          1.6343830143        0.6926513737       -1.6051876476
 H          2.6951690984        1.8022772850       -0.7402739297
 H          1.9941424090        0.7891297263        1.4307387324
 H          2.8608945029       -0.3366375847        0.3844164020
 H          1.6575773792       -2.4514435681       -0.4230781121
 H         -0.1040173209       -2.4954382674       -0.3402618825
 H          0.6987950234       -1.3858185100       -1.4552972973
