  17
        -28.17158150
 C          2.2909893788        1.4756321451        0.3836707274
 C          2.1420810559        0.0793838157       -0.2077737989
 C          0.7994638246       -0.5557702501        0.1508018958
 H          0.6302196341       -0.4946324587        1.2339125710
 C          0.6950196879       -2.0071751553       -0.3057673678
 O         -0.2015300260        0.2341365794       -0.5021390028
 N         -1.4717467460        0.2303819405        0.0299072427
 O         -1.6595228215       -0.4315491920        0.9989852424
 O         -2.2319736292        0.9132328087       -0.5668588306
 H          1.5092710289        2.1309064403        0.0085210914
 H          3.2537074112        1.8980558202        0.1091946001
 H          2.2268780660        1.4417595688        1.4692544834
 H          2.9340958709       -0.5705385291        0.1653708786
 H          2.2188778212        0.1285137869       -1.2944270780
 H         -0.2683472919       -2.4261116188       -0.0244216766
 H          0.8064962480       -2.0651911429       -1.3856744615
 H          1.4764115885       -2.5959356064        0.1645935803
