  13
        -26.88031833
 C          1.8831059597       -1.1962782035       -0.0147017810
 O          0.9287786977       -0.5194037872       -0.8113918340
 S         -0.0001434480        0.4872174453       -0.0000434640
 O         -0.7727600539        1.1868664627       -0.9593589291
 O          0.7726067184        1.1873303591        0.9588517999
 O         -0.9292893378       -0.5186823858        0.8119485529
 C         -1.8821817499       -1.1970649990        0.0147677748
 H          2.3539827097       -0.4832817101        0.6632382471
 H          2.6161984117       -1.6264830143       -0.6948710366
 H          1.3961395629       -1.9815130505        0.5681732637
 H         -2.6136081136       -1.6303401785        0.6947446858
 H         -1.3932318223       -1.9799948051       -0.5695646809
 H         -2.3553915829       -0.4844322944       -0.6619115701
  13
        -26.87926877
 C          1.5435367342       -1.1892625353       -1.1180923503
 O          1.2173909365       -0.5320658612        0.0945508196
 S         -0.0017347387        0.4872989331        0.0014311485
 O          0.0408699109        1.1864456474       -1.2294708624
 O         -0.0364230907        1.1835502698        1.2345993160
 O         -1.2413575183       -0.5073705910       -0.0934341254
 C         -1.5213028749       -1.1982431373        1.1094013425
 H          1.6785088563       -2.2497171126       -0.9019440337
 H          2.4673971735       -0.7682100825       -1.5172713566
 H          0.7384882164       -1.0448750278       -1.8380707369
 H         -0.7861796055       -1.9911267356        1.2646212698
 H         -2.5198986660       -1.6196133572        1.0081741079
 H         -1.4782372829       -0.4965402969        1.9434018101
  13
        -26.87814415
 C          2.0917605271       -0.6227559462       -0.8391814251
 O          0.8809065374       -0.9361587967       -0.1735975082
 S          0.0036513538        0.3719342752        0.1307797867
 O         -0.3869311366        0.9450309047       -1.1131963185
 O          0.6662976318        1.1834351889        1.0827037841
 O         -1.2200415211       -0.3208770318        0.8314944241
 C         -2.0541401170       -1.0753702634       -0.0324658707
 H          2.7042244519        0.0199372531       -0.2038152218
 H          1.8696816636       -0.1052514324       -1.7748207385
 H          2.5976098007       -1.5673398420       -1.0313661581
 H         -3.0196250762       -1.1717212894        0.4614850821
 H         -1.6118495278       -2.0583257776       -0.2030278383
 H         -2.1557384956       -0.5448019823       -0.9805098456
  13
        -26.87673870
 C          1.8896085644       -1.1908703811       -0.0585256893
 O          0.9836328034       -0.4588908503       -0.8611327843
 S         -0.0655903982        0.4928227348       -0.1386178835
 O         -0.3841938289        1.5217958005       -1.0490362321
 O          0.4081517643        0.7984368144        1.1712037896
 O         -1.3582874961       -0.4218679837       -0.0247747001
 C         -1.4184541405       -1.3113021901        1.0723312643
 H          1.5591659610       -2.2288058724        0.0263704334
 H          1.9473231956       -0.7295735242        0.9282864403
 H          2.8642671968       -1.1554196949       -0.5458182177
 H         -1.0068377394       -2.2841212319        0.7927252408
 H         -2.4684645702       -1.4210300192        1.3425208286
 H         -0.8568291041       -0.8892736225        1.9073997190
  13
        -26.87672978
 C          1.7886925827       -1.2609613391       -0.0187272575
 O          1.1398116212       -0.3179510743       -0.8474649158
 S         -0.0421025497        0.4831418475       -0.1601040416
 O         -0.4402356464        1.4743419066       -1.0821392519
 O          0.3374138864        0.8416297714        1.1667371536
 O         -1.1893602434       -0.6202732835       -0.0911846089
 C         -1.5514357558       -1.1613677502        1.1656227711
 H          1.2205053951       -2.1940048112        0.0054337961
 H          1.8794169172       -0.8515044692        0.9891851943
 H          2.7744964057       -1.4383287182       -0.4463483937
 H         -1.2995316498       -2.2239229106        1.1870802939
 H         -2.6272710758       -1.0358062209        1.2945027584
 H         -1.0170170349       -0.6283580769        1.9526715003
  13
        -26.87672569
 C          2.0077469751       -1.0678666461       -0.1295887447
 O          0.8599355345       -0.6029883642       -0.8155023996
 S         -0.0775763180        0.4826885708       -0.1181029628
 O         -0.3241603015        1.5266156353       -1.0358183601
 O          0.4377453709        0.7746300374        1.1789368214
 O         -1.4313524346       -0.3257922781        0.0184367920
 C         -1.4124147493       -1.3475133040        0.9947542830
 H          1.9426686624       -2.1533303675       -0.0311655248
 H          2.0526526449       -0.5984839967        0.8536180012
 H          2.8931113409       -0.8024107388       -0.7093401467
 H         -2.4489104212       -1.5832600751        1.2309037461
 H         -0.8908829119       -0.9862152541        1.8832516926
 H         -0.9079051301       -2.2327674762        0.6001354275
  13
        -26.87343862
 C          2.3668197023       -0.2731707604       -0.6631947692
 O          1.1307435384       -0.8808651506       -0.3161247048
 S          0.0000429449        0.1846326900        0.0000839756
 O         -0.3278954906        0.9250375555       -1.1700284540
 O          0.3276196885        0.9261874416        1.1695523314
 O         -1.1304378036       -0.8809726510        0.3172015465
 C         -2.3669259401       -0.2730836612        0.6624669551
 H          2.7152717040        0.3490849398        0.1639388880
 H          2.2352967859        0.3438744282       -1.5546453735
 H          3.0665902954       -1.0842847358       -0.8561278242
 H         -3.0671038344       -1.0840878513        0.8542960731
 H         -2.7139961554        0.3492846536       -0.1651464090
 H         -2.2366339483        0.3439044545        1.5541509353
