  13
        -26.88031833
 C          1.8831059597       -1.1962782035       -0.0147017810
 O          0.9287786977       -0.5194037872       -0.8113918340
 S         -0.0001434480        0.4872174453       -0.0000434640
 O         -0.7727600539        1.1868664627       -0.9593589291
 O          0.7726067184        1.1873303591        0.9588517999
 O         -0.9292893378       -0.5186823858        0.8119485529
 C         -1.8821817499       -1.1970649990        0.0147677748
 H          2.3539827097       -0.4832817101        0.6632382471
 H          2.6161984117       -1.6264830143       -0.6948710366
 H          1.3961395629       -1.9815130505        0.5681732637
 H         -2.6136081136       -1.6303401785        0.6947446858
 H         -1.3932318223       -1.9799948051       -0.5695646809
 H         -2.3553915829       -0.4844322944       -0.6619115701
