  22
        -54.09986960
 C          2.3617815268       -1.3874770338       -0.0000513630
 C          1.1618380102       -0.6991557899       -0.0000867023
 C          1.1618439133        0.6991577100       -0.0000908568
 C          2.3617833126        1.3874848422       -0.0000379910
 C          3.5659170921        0.6952221239        0.0000152475
 C          3.5659129463       -0.6952143815        0.0000005932
 Cl         5.0438021023       -1.5706462791        0.0000450085
 Cl         5.0438102673        1.5706369975        0.0000999655
 O         -0.0000023060        1.4282569994       -0.0001483380
 C         -1.1618407118        0.6991636103       -0.0000980285
 C         -2.3617862495        1.3874854989       -0.0000617947
 C         -3.5659168464        0.6952196587        0.0000003523
 C         -3.5659112713       -0.6952147747        0.0000164801
 C         -2.3617813692       -1.3874781345       -0.0000202898
 C         -1.1618415658       -0.6991502977       -0.0000776327
 O         -0.0000037638       -1.4282471990       -0.0001103847
 Cl        -5.0437997236       -1.5706496173        0.0000839506
 Cl        -5.0438095854        1.5706395713        0.0000594397
 H          2.3477366710       -2.4646755365       -0.0000538180
 H          2.3477273874        2.4646821567       -0.0000345644
 H         -2.3477356703        2.4646806046       -0.0000804338
 H         -2.3477252451       -2.4646757474       -0.0000045480
