  14
  -20.7885148900000       5.712349559371836E-002 !md5
 C         -2.8136315058        0.2289785513        0.0007680780
 C         -1.4461654907       -0.4406603649       -0.0046126185
 C         -0.3205102083        0.5888261761        0.0037977935
 C          1.0410852380       -0.0537934976        0.0009074899
 O          1.2709276652       -1.2319993702        0.0017990403
 O          2.0185295687        0.8672162478       -0.0024819277
 H         -2.9346820278        0.8610597517       -0.8763648752
 H         -2.9346015456        0.8472726134        0.8876797031
 H         -3.6020920796       -0.5190924191       -0.0050445345
 H         -1.3441983419       -1.0860598275        0.8691388346
 H         -1.3443373152       -1.0718306820       -0.8887442565
 H         -0.3831475195        1.2417483873       -0.8699487701
 H         -0.3849114460        1.2282121822        0.8874981106
 H          2.8875426292        0.4359296517       -0.0036314105
  14
  -20.7885147000000       5.711201166855310E-002 !md2
 C         -2.8135369817        0.2294105444       -0.0025302185
 C         -1.4463779600       -0.4408042633        0.0080597696
 C         -0.3205437431        0.5884290151       -0.0061035333
 C          1.0411755462       -0.0540233940       -0.0013056221
 O          1.2713464132       -1.2321623224       -0.0029982641
 O          2.0181816722        0.8675174601        0.0046001369
 H         -3.6024613108       -0.5181073062        0.0094118905
 H         -2.9341955545        0.8404585310       -0.8944835015
 H         -2.9342752055        0.8687678432        0.8693737628
 H         -1.3455729948       -1.0663736188        0.8962572413
 H         -1.3439376184       -1.0918262475       -0.8614322578
 H         -0.3854396879        1.2231954463       -0.8931690463
 H         -0.3825383004        1.2459109298        0.8642460963
 H          2.8875973045        0.4370587066        0.0067666683
  14
  -20.7885146200000       5.710717702233452E-002 !mtd8
 C         -2.8136633907        0.2288860200       -0.0045772441
 C         -1.4461714452       -0.4405065075        0.0120620791
 C         -0.3204981036        0.5888187913       -0.0069852647
 C          1.0410763999       -0.0538036269       -0.0015554574
 O          1.2709734647       -1.2319308407       -0.0045396768
 O          2.0185294117        0.8671313036        0.0055672096
 H         -2.9362250356        0.8729508709        0.8636246607
 H         -3.6021097821       -0.5191167221        0.0102446802
 H         -2.9332791898        0.8349196266       -0.9000547691
 H         -1.3463080028       -1.0604666715        0.9042790465
 H         -1.3423134631       -1.0968675355       -0.8532523046
 H         -0.3865378716        1.2199032882       -0.8965905960
 H         -0.3814422533        1.2498623109        0.8606965714
 H          2.8874754234        0.4357929572        0.0073245154
  14
  -20.7884755600000       5.479487734136858E-002 !mtd6
 C         -2.1285247606       -0.0513111493       -0.7556865326
 C         -1.5536172839       -0.1731683624        0.6499759454
 C         -0.2448532472        0.6018261873        0.7921803008
 C          0.8832996124       -0.0425921647        0.0274416519
 O          0.9917535327       -1.2105403646       -0.2286302512
 O          1.8096820719        0.8585806942       -0.3338791356
 H         -1.4339354177       -0.4627790640       -1.4838117772
 H         -2.3167933687        0.9911014552       -1.0053321429
 H         -3.0655239091       -0.5973808535       -0.8306216166
 H         -2.2739206841        0.2078420601        1.3761089159
 H         -1.3628999355       -1.2238088075        0.8736013460
 H         -0.3511210299        1.6323949765        0.4513532652
 H          0.0642526858        0.6261559550        1.8408495506
 H          2.5412513028        0.4242589008       -0.8004556347
  14
  -20.7884755600000       5.479487734136858E-002 !md7
 C         -2.1273012684       -0.0513922710       -0.7561747590
 C         -1.5538652972       -0.1728825947        0.6501169056
 C         -0.2447199964        0.6013971796        0.7930885270
 C          0.8830781883       -0.0425709100        0.0274659819
 O          0.9915039804       -1.2104332970       -0.2286447727
 O          1.8090975373        0.8586651673       -0.3343189012
 H         -3.0642441554       -0.5974291880       -0.8319569541
 H         -1.4319370701       -0.4633117492       -1.4832656126
 H         -2.3151837878        0.9909073191       -1.0066096742
 H         -2.2746429368        0.2092937427        1.3751496676
 H         -1.3642190672       -1.2235049344        0.8747856624
 H         -0.3505694402        1.6324323895        0.4535529739
 H          0.0643815496        0.6242375583        1.8417810370
 H          2.5403909504        0.4245393650       -0.8015086602
  14
  -20.7884755300000       5.479313785934518E-002 !mtd12
 C         -2.1293514619       -0.0489607951        0.7548225504
 C         -1.5531587673       -0.1748867955       -0.6499723162
 C         -0.2445037646        0.6000440410       -0.7934316209
 C          0.8834396927       -0.0427478471       -0.0270223046
 O          0.9925924532       -1.2103836623        0.2300736491
 O          1.8088445919        0.8593647997        0.3340348327
 H         -2.3179365384        0.9941312973        1.0014032737
 H         -1.4353305467       -0.4582656572        1.4846737753
 H         -3.0663622952       -0.5949000158        0.8306293881
 H         -1.3620708134       -1.2261210473       -0.8705788068
 H         -2.2728866507        0.2040160535       -1.3777353837
 H          0.0649686969        0.6222735252       -1.8420149370
 H         -0.3510215273        1.6312617655       -0.4546969484
 H          2.5404800082        0.4260166374        0.8014109109
  14
  -20.7884755300000       5.479313785934518E-002 !gc
 C         -2.1282636013       -0.0470575435        0.7554848603
 C         -1.5533062781       -0.1757807012       -0.6495512914
 C         -0.2442992585        0.5982015538       -0.7955255868
 C          0.8833299021       -0.0429938788       -0.0273193082
 O          0.9934299661       -1.2104561386        0.2298861812
 O          1.8071299867        0.8602340222        0.3352089578
 H         -1.4338641606       -0.4554770102        1.4854887045
 H         -3.0655680075       -0.5922390103        0.8331109459
 H         -2.3159063033        0.9965993821        1.0003288750
 H         -1.3628664355       -1.2275149280       -0.8682465209
 H         -2.2735220606        0.2019887128       -1.3774328508
 H          0.0649067096        0.6170231580       -1.8442743770
 H         -0.3502545504        1.6304522622       -0.4597967275
 H          2.5385033733        0.4277927937        0.8038339270
  14
  -20.7884754300000       5.478733998446376E-002 !mtd7
 C         -2.1291705636       -0.0485687730       -0.7556369529
 C         -1.5534403222       -0.1750510288        0.6492438998
 C         -0.2449283912        0.6001147876        0.7930414705
 C          0.8834600563       -0.0427407961        0.0273660178
 O          0.9933140482       -1.2105845222       -0.2282913040
 O          1.8085599374        0.8593210091       -0.3343691194
 H         -2.3193705744        0.9944197829       -1.0013278431
 H         -3.0652128088       -0.5959589392       -0.8322219198
 H         -1.4342776185       -0.4560197524       -1.4856315149
 H         -2.2734318198        0.2034459430        1.3769513396
 H         -1.3621776258       -1.2263388134        0.8694661407
 H         -0.3512788830        1.6313758858        0.4543261682
 H          0.0639685253        0.6222293986        1.8418300154
 H          2.5407022009        0.4255010041       -0.8005311917
  14
  -20.7884754000000       5.478560074171633E-002 !mtd2
 C         -2.1306543331       -0.0585550610        0.7532547842
 C         -1.5531280624       -0.1696706176       -0.6522394354
 C         -0.2449113698        0.6075353297       -0.7867383210
 C          0.8832498119       -0.0415342854       -0.0260409757
 O          0.9872160578       -1.2095580446        0.2310163769
 O          1.8155020033        0.8556145866        0.3301553305
 H         -3.0662266615       -0.6077387952        0.8232089684
 H         -2.3221620345        0.9816340449        1.0097316275
 H         -1.4359066089       -0.4731214320        1.4794052453
 H         -1.3613941262       -1.2185070972       -0.8834630061
 H         -2.2725859805        0.2163101507       -1.3765447024
 H          0.0655898955        0.6410779870       -1.8347458106
 H         -0.3524447649        1.6352932642       -0.4378096875
 H          2.5469161493        0.4183280417        0.7941693074
  14
  -20.7880281300000       3.412835598285709E-002 !md8
 C         -2.7666848198        0.2940600617        0.0040113499
 C         -1.3530158945       -0.0008524180       -0.4791895472
 C         -0.3333445766        0.1580386742        0.6570832354
 C          1.0428420785       -0.1668003611        0.1419892790
 O          1.5739567648       -1.2432711434        0.1852651351
 O          1.6274099939        0.8987474513       -0.4237446818
 H         -2.8378991977        1.3119445877        0.3805114648
 H         -3.0480816914       -0.3884583051        0.8024881557
 H         -3.4756367264        0.1789144107       -0.8121076217
 H         -1.3006507153       -1.0213423860       -0.8637586100
 H         -1.0919358560        0.6814878217       -1.2905171246
 H         -0.3462287736        1.1854204291        1.0208484671
 H         -0.5767077582       -0.5282016794        1.4683193301
 H          2.4975628496        0.6595008926       -0.7799630301
  14
  -20.7880281200000       3.412799484023552E-002 !md1
 C         -2.7667416320        0.2938293800       -0.0053712879
 C         -1.3531154985        0.0006224068        0.4789685928
 C         -0.3332274897        0.1562971403       -0.6575751511
 C          1.0428047087       -0.1671485817       -0.1413183252
 O          1.5738227904       -1.2437621062       -0.1812547184
 O          1.6276001856        0.8999121397        0.4213091831
 H         -3.4758839656        0.1804072253        0.8108217356
 H         -3.0476659268       -0.3907405689       -0.8022527986
 H         -2.8382447934        1.3107568999       -0.3843790317
 H         -1.0922877171        0.6854205974        1.2883005197
 H         -1.3006620923       -1.0187103318        0.8665774550
 H         -0.5764493197       -0.5322771752       -1.4668659036
 H         -0.3460629369        1.1826272998       -1.0243080105
 H          2.4977005011        0.6611641392        0.7779904585
  14
  -20.7880280900000       3.412691143542836E-002 !mtd9
 C         -2.7666337526        0.2940484782        0.0039601338
 C         -1.3527835092        0.0002964220       -0.4793765737
 C         -0.3333976433        0.1570899177        0.6574626567
 C          1.0428155861       -0.1670816924        0.1421249461
 O          1.5745901845       -1.2432138032        0.1853265190
 O          1.6266459029        0.8987392947       -0.4239992864
 H         -3.0482144541       -0.3901250228        0.8009691466
 H         -3.4753176491        0.1804719640       -0.8126215603
 H         -2.8380853286        1.3111641618        0.3824971773
 H         -1.3002794463       -1.0194111586       -0.8659818798
 H         -1.0915398193        0.6842755977       -1.2892528671
 H         -0.3462166945        1.1838633419        1.0229601738
 H         -0.5770633356       -0.5304881454        1.4674574267
 H          2.4967833641        0.6598405518       -0.7804385321
  14
  -20.7880280500000       3.412546694914285E-002 !mtd11
 C         -2.7665967779        0.2943398872       -0.0055144770
 C         -1.3527542149        0.0036127279        0.4796859466
 C         -0.3335222248        0.1530530614       -0.6582585172
 C          1.0428853492       -0.1680235497       -0.1413918024
 O          1.5760472525       -1.2436138008       -0.1815391391
 O          1.6252573117        0.9001005108        0.4217363999
 H         -3.0479112458       -0.3942967136       -0.7987463085
 H         -2.8382374119        1.3093058035       -0.3897090947
 H         -3.4753789158        0.1851412346        0.8115588759
 H         -1.0913831085        0.6927231149        1.2851675296
 H         -1.3002837013       -1.0136289570        0.8727653045
 H         -0.5773967865       -0.5394510361       -1.4639987781
 H         -0.3462722389        1.1775542418       -1.0301205720
 H          2.4957065911        0.6633232181        0.7788776780
  14
  -20.7880279500000       3.412185600084949E-002 !md6
 C         -2.7661247194        0.2973719056       -0.0053292862
 C         -1.3525090201        0.0062401488        0.4802849853
 C         -0.3340879795        0.1467102408       -0.6594941195
 C          1.0430345042       -0.1694422698       -0.1414966899
 O          1.5804390632       -1.2428947872       -0.1817794606
 O          1.6208435989        0.9007514130        0.4224427528
 H         -2.8360693438        1.3107846085       -0.3938863960
 H         -3.4746096764        0.1930757303        0.8126157680
 H         -3.0491837484       -0.3941585040       -0.7954002206
 H         -1.0887820945        0.6995069817        1.2814088953
 H         -1.3020390922       -1.0087822976        0.8793337783
 H         -0.5781710908       -0.5520354238       -1.4597521954
 H         -0.3475480306        1.1683085691       -1.0392993028
 H          2.4920110855        0.6672756487        0.7800054032
  14
  -20.7880278400000       3.411788439914002E-002 !mtd12
 C         -2.7662492312        0.2959875824        0.0039404811
 C         -1.3519858565        0.0062862041       -0.4806551198
 C         -0.3340259700        0.1493684616        0.6592613162
 C          1.0429855806       -0.1690629390        0.1424159424
 O          1.5798658836       -1.2426581515        0.1858691418
 O          1.6210595920        0.8992570161       -0.4251439511
 H         -3.4741346928        0.1904628111       -0.8144187073
 H         -2.8376778630        1.3094883823        0.3920615834
 H         -3.0489761262       -0.3956069544        0.7941312686
 H         -1.3000369224       -1.0091575573       -0.8784528933
 H         -1.0888358667        0.6989087534       -1.2825506484
 H         -0.3470623623        1.1720072011        1.0362322394
 H         -0.5788309567       -0.5470378040        1.4613320344
 H          2.4919261555        0.6646260540       -0.7826206638
  14
  -20.7880242800000       3.398959819432956E-002 !gc
 C         -2.7900375899        0.2284993606       -0.0241810062
 C         -1.3924219664       -0.1925943171        0.4089062641
 C         -0.3202566942        0.3975747838       -0.5147976176
 C          1.0406696541       -0.1057021082       -0.1116673605
 O          1.4042874694       -1.2498281617       -0.1549280962
 O          1.8301502372        0.8806794074        0.3349164131
 H         -3.5353194874       -0.1906493011        0.6470945548
 H         -3.0001774455       -0.1213581116       -1.0322229098
 H         -2.8852349592        1.3119952117       -0.0095915760
 H         -1.2094869590        0.1428459023        1.4319527700
 H         -1.3089722433       -1.2806031469        0.3913861979
 H         -0.5148315397        0.0743974377       -1.5392359096
 H         -0.3276901231        1.4861899134       -0.4687951715
 H          2.6949769957        0.5309675852        0.6030559583
  14
  -20.7880114700000       3.353196176197124E-002 !gc
 C         -2.7852944505        0.2441754962        0.0146380820
 C         -1.3865127429       -0.1745990795       -0.4171212820
 C         -0.3212959144        0.3646746182        0.5456630071
 C          1.0410720430       -0.1139107831        0.1186421406
 O          1.4288439249       -1.2500968885        0.1602943431
 O          1.7987899921        0.8851525861       -0.3542773561
 H         -3.5258740740       -0.1398321385       -0.6824105412
 H         -2.8687363897        1.3283622071        0.0417198978
 H         -3.0123677126       -0.1429088811        1.0052014726
 H         -1.3153980694       -1.2632889386       -0.4447207906
 H         -1.1857526075        0.2020857500       -1.4223243029
 H         -0.3311414761        1.4541632352        0.5561488313
 H         -0.5215791687       -0.0140112118        1.5493536795
 H          2.6627634054        0.5511052513       -0.6437774510
  14
  -20.7879592800000       3.173029420372072E-002 !mtd11
 C         -2.0818931109       -0.3241132112       -0.6146878355
 C         -1.4376445389        0.7535793470        0.2480673468
 C         -0.2377706276        0.2110428517        1.0344874972
 C          0.8779168004       -0.1941167278        0.1065427812
 O          1.2726560831       -1.3139332604       -0.0750845756
 O          1.4104824347        0.8626164372       -0.5242699373
 H         -2.4363237651       -1.1457962585        0.0035043471
 H         -1.3672033725       -0.7236514456       -1.3304389690
 H         -2.9274850720        0.0840872192       -1.1632071522
 H         -1.1045637788        1.5824725449       -0.3788581561
 H         -2.1720489503        1.1402526333        0.9572635643
 H          0.1423153725        0.9893217074        1.6981219782
 H         -0.5311002937       -0.6587105929        1.6225441083
 H          2.1175772654        0.5766327349       -1.1233095109
  14
  -20.7879592700000       3.172995843725231E-002 !gc
 C         -2.0803944226       -0.3091892300        0.6232182120
 C         -1.4377793807        0.7499362700       -0.2634281197
 C         -0.2382336320        0.1910927002       -1.0384861830
 C          0.8779659514       -0.1968998380       -0.1037289787
 O          1.2808457157       -1.3120495087        0.0883944090
 O          1.4017634016        0.8692707029        0.5184050886
 H         -2.4328871510       -1.1454106499        0.0236939909
 H         -2.9270225095        0.1096231719        1.1620406767
 H         -1.3652008396       -0.6908601809        1.3481564048
 H         -2.1731428290        1.1204299101       -0.9802742669
 H         -1.1049128057        1.5924705610        0.3451390703
 H         -0.5316890134       -0.6898580221       -1.6096247560
 H          0.1425394177        0.9556849841       -1.7176095386
 H          2.1105659057        0.5934724222        1.1201934960
  14
  -20.7879592700000       3.172995843725231E-002 !mtd3
 C         -2.0811029069       -0.3090880288        0.6228051060
 C         -1.4374870814        0.7501969175       -0.2629167528
 C         -0.2382644680        0.1910031363       -1.0382863427
 C          0.8783338895       -0.1970543888       -0.1040775771
 O          1.2812845808       -1.3121789920        0.0882936078
 O          1.4015411142        0.8692209224        0.5184721881
 H         -1.3664042075       -0.6917610849        1.3477463334
 H         -2.4339492473       -1.1446736962        0.0225809756
 H         -2.9276647838        0.1100436872        1.1615702402
 H         -2.1724065219        1.1218741324       -0.9795639682
 H         -1.1039646420        1.5919686816        0.3462929713
 H         -0.5321107582       -0.6897769134       -1.6094327498
 H          0.1424773300        0.9555729543       -1.7174097697
 H          2.1097774728        0.5937470505        1.1210677940
  14
  -20.7879592200000       3.172827965772804E-002 !mtd5
 C         -2.0793618070       -0.3179541232       -0.6196428386
 C         -1.4378510763        0.7521422320        0.2544688109
 C         -0.2379107743        0.2039359286        1.0367406910
 C          0.8777108533       -0.1952166412        0.1060985870
 O          1.2768837801       -1.3131438046       -0.0773824645
 O          1.4046549609        0.8643477722       -0.5245585251
 H         -1.3638146368       -0.7069761507       -1.3401692915
 H         -2.9265940264        0.0934067212       -1.1632756573
 H         -2.4303798142       -1.1476099033       -0.0104195131
 H         -1.1053815921        1.5874660055       -0.3641214643
 H         -2.1737564069        1.1307606470        0.9664503374
 H          0.1424786536        0.9773590558        1.7058607540
 H         -0.5311280975       -0.6697799327        1.6189121293
 H          2.1115586186        0.5814956972       -1.1253542238
  14
  -20.7879592100000       3.172794391245806E-002 !mtd4
 C         -2.0816642124       -0.3260676773       -0.6137570451
 C         -1.4379542913        0.7536483519        0.2468312531
 C         -0.2375447745        0.2135019197        1.0341301117
 C          0.8778328958       -0.1936975541        0.1067613104
 O          1.2709321544       -1.3141276629       -0.0746708443
 O          1.4120653341        0.8621255504       -0.5242893270
 H         -2.9277754615        0.0805437840       -1.1626582029
 H         -2.4352215754       -1.1468844922        0.0060753185
 H         -1.3669643346       -0.7263498064       -1.3290747681
 H         -1.1053824492        1.5814565199       -0.3817795881
 H         -2.1725282024        1.1413583875        0.9553148336
 H          0.1424005023        0.9936428334        1.6956395879
 H         -0.5304965198       -0.6548562422        1.6243900401
 H          2.1186460901        0.5747450127       -1.1232538005
  14
  -20.7879589600000       3.171955143599284E-002 !gc
 C         -2.0797973474       -0.3017483354        0.6275631075
 C         -1.4373864546        0.7488673920       -0.2693119023
 C         -0.2387908656        0.1822776686       -1.0400352738
 C          0.8782299298       -0.1984817258       -0.1033220708
 O          1.2868486129       -1.3112025393        0.0905863962
 O          1.3954778122        0.8712342284        0.5184310796
 H         -2.9266461511        0.1220202835        1.1621594694
 H         -1.3645571799       -0.6760226970        1.3563033909
 H         -2.4319191593       -1.1438812732        0.0361686518
 H         -2.1731148181        1.1131555161       -0.9889166277
 H         -1.1035751589        1.5966439026        0.3312839963
 H         -0.5330650436       -0.7034006729       -1.6034645340
 H          0.1421546724        0.9404491812       -1.7263049334
 H          2.1051574456        0.5999383632        1.1212274146
  14
  -20.7873674800000       1.696296045843311E-002 !gc
 C         -2.2085702337       -0.7031090332        0.1987135631
 C         -1.5313198113        0.4710215633       -0.4958920273
 C         -0.2674834950        0.9346686293        0.2380469976
 C          0.8833391076       -0.0262547997        0.0810076805
 O          0.8435181235       -1.2219846429        0.1867372201
 O          2.0238327445        0.6231224416       -0.1992242359
 H         -3.0810786949       -1.0228462210       -0.3658357737
 H         -2.5302796316       -0.4203207918        1.1988958480
 H         -1.5197459437       -1.5386558651        0.2789395545
 H         -1.2694030145        0.1897600199       -1.5178849053
 H         -2.2242580506        1.3136575066       -0.5492094745
 H          0.0593500356        1.9085304450       -0.1275335354
 H         -0.4820111624        1.0201992987        1.3063819406
 H          2.7597829358       -0.0036729421       -0.2862305321
  14
  -20.7873674700000       1.696278095819546E-002 !mtd7
 C         -2.2066810764       -0.7044851300       -0.2015932442
 C         -1.5331932773        0.4704972199        0.4953649546
 C         -0.2673355792        0.9361783682       -0.2334014907
 C          0.8829121295       -0.0259667823       -0.0795098649
 O          0.8420061299       -1.2217894011       -0.1835535185
 O          2.0252832136        0.6230197961        0.1944120386
 H         -1.5171489073       -1.5397302714       -0.2783851401
 H         -2.5240207327       -0.4225501380       -1.2033959004
 H         -3.0816206952       -1.0244672195        0.3591237842
 H         -2.2273839591        1.3123077751        0.5460385612
 H         -1.2748721602        0.1896549170        1.5183706123
 H         -0.4792855706        1.0274139258       -1.3018108729
 H          0.0596696760        1.9080877804        0.1373714386
 H          2.7611340170       -0.0043115215        0.2784038313
  14
  -20.7858336500000       3.346587522799357E-003 !mtd8
 C         -2.0766644374        1.0684574757       -0.0258612300
 C         -1.5656611751       -0.3061523395        0.3880139176
 C         -0.4033359977       -0.7995026669       -0.4803488522
 C          0.9522698449       -0.2644517340       -0.0930975381
 O          1.9718952998       -0.9000840788       -0.1468329380
 O          0.9378930908        1.0120299240        0.3101901403
 H         -2.4274972336        1.0492428559       -1.0555633665
 H         -1.2894341839        1.8110168764        0.0592304424
 H         -2.9050791061        1.3678175300        0.6118783598
 H         -1.2522127178       -0.2815032492        1.4329243001
 H         -2.3815226482       -1.0270322479        0.3040101541
 H         -0.3295860343       -1.8877450378       -0.4473335972
 H         -0.5775843861       -0.5108944344       -1.5205955642
 H          1.8364554675        1.2967809715        0.5402745923
