  14
        -20.78851489
 C         -2.8136315058        0.2289785513        0.0007680780
 C         -1.4461654907       -0.4406603649       -0.0046126185
 C         -0.3205102083        0.5888261761        0.0037977935
 C          1.0410852380       -0.0537934976        0.0009074899
 O          1.2709276652       -1.2319993702        0.0017990403
 O          2.0185295687        0.8672162478       -0.0024819277
 H         -2.9346820278        0.8610597517       -0.8763648752
 H         -2.9346015456        0.8472726134        0.8876797031
 H         -3.6020920796       -0.5190924191       -0.0050445345
 H         -1.3441983419       -1.0860598275        0.8691388346
 H         -1.3443373152       -1.0718306820       -0.8887442565
 H         -0.3831475195        1.2417483873       -0.8699487701
 H         -0.3849114460        1.2282121822        0.8874981106
 H          2.8875426292        0.4359296517       -0.0036314105
  14
        -20.78847556
 C         -2.1285247606       -0.0513111493       -0.7556865326
 C         -1.5536172839       -0.1731683624        0.6499759454
 C         -0.2448532472        0.6018261873        0.7921803008
 C          0.8832996124       -0.0425921647        0.0274416519
 O          0.9917535327       -1.2105403646       -0.2286302512
 O          1.8096820719        0.8585806942       -0.3338791356
 H         -1.4339354177       -0.4627790640       -1.4838117772
 H         -2.3167933687        0.9911014552       -1.0053321429
 H         -3.0655239091       -0.5973808535       -0.8306216166
 H         -2.2739206841        0.2078420601        1.3761089159
 H         -1.3628999355       -1.2238088075        0.8736013460
 H         -0.3511210299        1.6323949765        0.4513532652
 H          0.0642526858        0.6261559550        1.8408495506
 H          2.5412513028        0.4242589008       -0.8004556347
  14
        -20.78802813
 C         -2.7666848198        0.2940600617        0.0040113499
 C         -1.3530158945       -0.0008524180       -0.4791895472
 C         -0.3333445766        0.1580386742        0.6570832354
 C          1.0428420785       -0.1668003611        0.1419892790
 O          1.5739567648       -1.2432711434        0.1852651351
 O          1.6274099939        0.8987474513       -0.4237446818
 H         -2.8378991977        1.3119445877        0.3805114648
 H         -3.0480816914       -0.3884583051        0.8024881557
 H         -3.4756367264        0.1789144107       -0.8121076217
 H         -1.3006507153       -1.0213423860       -0.8637586100
 H         -1.0919358560        0.6814878217       -1.2905171246
 H         -0.3462287736        1.1854204291        1.0208484671
 H         -0.5767077582       -0.5282016794        1.4683193301
 H          2.4975628496        0.6595008926       -0.7799630301
  14
        -20.78802428
 C         -2.7900375899        0.2284993606       -0.0241810062
 C         -1.3924219664       -0.1925943171        0.4089062641
 C         -0.3202566942        0.3975747838       -0.5147976176
 C          1.0406696541       -0.1057021082       -0.1116673605
 O          1.4042874694       -1.2498281617       -0.1549280962
 O          1.8301502372        0.8806794074        0.3349164131
 H         -3.5353194874       -0.1906493011        0.6470945548
 H         -3.0001774455       -0.1213581116       -1.0322229098
 H         -2.8852349592        1.3119952117       -0.0095915760
 H         -1.2094869590        0.1428459023        1.4319527700
 H         -1.3089722433       -1.2806031469        0.3913861979
 H         -0.5148315397        0.0743974377       -1.5392359096
 H         -0.3276901231        1.4861899134       -0.4687951715
 H          2.6949769957        0.5309675852        0.6030559583
  14
        -20.78795928
 C         -2.0818931109       -0.3241132112       -0.6146878355
 C         -1.4376445389        0.7535793470        0.2480673468
 C         -0.2377706276        0.2110428517        1.0344874972
 C          0.8779168004       -0.1941167278        0.1065427812
 O          1.2726560831       -1.3139332604       -0.0750845756
 O          1.4104824347        0.8626164372       -0.5242699373
 H         -2.4363237651       -1.1457962585        0.0035043471
 H         -1.3672033725       -0.7236514456       -1.3304389690
 H         -2.9274850720        0.0840872192       -1.1632071522
 H         -1.1045637788        1.5824725449       -0.3788581561
 H         -2.1720489503        1.1402526333        0.9572635643
 H          0.1423153725        0.9893217074        1.6981219782
 H         -0.5311002937       -0.6587105929        1.6225441083
 H          2.1175772654        0.5766327349       -1.1233095109
  14
        -20.78736748
 C         -2.2085702337       -0.7031090332        0.1987135631
 C         -1.5313198113        0.4710215633       -0.4958920273
 C         -0.2674834950        0.9346686293        0.2380469976
 C          0.8833391076       -0.0262547997        0.0810076805
 O          0.8435181235       -1.2219846429        0.1867372201
 O          2.0238327445        0.6231224416       -0.1992242359
 H         -3.0810786949       -1.0228462210       -0.3658357737
 H         -2.5302796316       -0.4203207918        1.1988958480
 H         -1.5197459437       -1.5386558651        0.2789395545
 H         -1.2694030145        0.1897600199       -1.5178849053
 H         -2.2242580506        1.3136575066       -0.5492094745
 H          0.0593500356        1.9085304450       -0.1275335354
 H         -0.4820111624        1.0201992987        1.3063819406
 H          2.7597829358       -0.0036729421       -0.2862305321
  14
        -20.78583365
 C         -2.0766644374        1.0684574757       -0.0258612300
 C         -1.5656611751       -0.3061523395        0.3880139176
 C         -0.4033359977       -0.7995026669       -0.4803488522
 C          0.9522698449       -0.2644517340       -0.0930975381
 O          1.9718952998       -0.9000840788       -0.1468329380
 O          0.9378930908        1.0120299240        0.3101901403
 H         -2.4274972336        1.0492428559       -1.0555633665
 H         -1.2894341839        1.8110168764        0.0592304424
 H         -2.9050791061        1.3678175300        0.6118783598
 H         -1.2522127178       -0.2815032492        1.4329243001
 H         -2.3815226482       -1.0270322479        0.3040101541
 H         -0.3295860343       -1.8877450378       -0.4473335972
 H         -0.5775843861       -0.5108944344       -1.5205955642
 H          1.8364554675        1.2967809715        0.5402745923
