! r2scan-3c def2/J RI DEFGRID2 scfconv6 printgap
%output
    printlevel normal
end
%cpcm
    smd true
    smdsolvent "water"
end
* xyz 0 1
C -1.4463176106 0.1435035411 0.5985121286
C 0.0744785273 0.3434893333 0.4861755559
C 0.791603383 -0.8928886597 -0.0674353637
O 2.1814132074 -0.6548500477 0.0328765942
O 0.3196110798 1.4696742762 -0.3275515351
O -2.0656929109 -0.3328000957 -0.5709204999
H -1.8920600648 1.1220332875 0.7885564061
H -1.6549470302 -0.517116793 1.4477919938
H 0.4607800357 0.5364261908 1.5003307483
H 0.5023353346 -1.0313813422 -1.1161565462
H 0.5063893574 -1.7727961166 0.5224217914
H 2.665822793 -1.4026389116 -0.3415194437
H 1.2738031575 1.5194463545 -0.4880639538
H -1.8581404207 -1.2686145046 -0.6951478363
*
