  34
        -44.00346121
 C          3.2214846279        0.0003063470        1.1364831204
 C          2.3014395049        0.7236583376        0.1974942871
 C          1.1636555786        1.2657532990        0.6167590041
 C          0.1795775270        2.0138154738       -0.2346946740
 C         -0.6608490026        1.1056553287       -1.1431654832
 C         -1.6039608553        0.1589091875       -0.3795660784
 C         -2.4785034464       -0.6221038367       -1.3711418166
 C         -2.5008945549        0.9556045377        0.5339545222
 C         -2.6081431933        0.7991159220        1.8387756370
 O         -0.8760967079       -0.7684718697        0.4503780209
 C          0.0102171455       -1.6152023976       -0.0578621909
 O          0.3223144769       -1.7086573290       -1.2174831048
 C          0.5682899114       -2.4899359951        1.0400071340
 C          2.7680619112        0.7504233529       -1.2272353909
 H          4.1826703018        0.5126356719        1.1858241758
 H          3.4049601768       -1.0113925329        0.7765014133
 H          2.8077226681       -0.0499982308        2.1407841553
 H          0.8921107573        1.1701537514        1.6599145977
 H         -0.4886205133        2.5871240203        0.4110354016
 H          0.7116899361        2.7206272503       -0.8779485240
 H         -0.0038326500        0.5070124599       -1.7722681986
 H         -1.2793960767        1.7297787451       -1.7916304710
 H         -3.1120591912       -1.3206988167       -0.8280201803
 H         -3.1090022944        0.0622789950       -1.9317097193
 H         -1.8515109701       -1.1760903911       -2.0647842811
 H         -3.0884729728        1.6996638303        0.0131697248
 H         -3.2781620339        1.4036154463        2.4263257224
 H         -2.0284077741        0.0620836250        2.3658732132
 H          1.3962628537       -3.0764232952        0.6549254811
 H         -0.2155303117       -3.1564168175        1.3930678915
 H          0.8940166939       -1.8715266095        1.8704854899
 H          3.8552867456        0.7721269247       -1.2712915080
 H          2.4291855782       -0.1519182835       -1.7373034663
 H          2.3772865686        1.6105612234       -1.7646551131
