! r2scan-3c def2/J RI DEFGRID2 scfconv6 printgap
%output
    printlevel normal
end
%cpcm
    smd true
    smdsolvent "water"
end
* xyz 0 1
C 2.3642082665 0.5836274419 -0.7420112515
C 1.0690688815 -0.1148530277 -0.3210307675
H 0.672568482 -0.6705086944 -1.1846574917
C 0.0370567399 0.9175944314 0.1487976232
C -1.4287622688 0.4586911578 0.1814965992
C -1.9505273717 0.0931171962 -1.2077430791
C -1.6519723219 -0.6923165504 1.1581838689
O 1.3104225132 -1.0220901362 0.744026953
H 2.1734515397 1.2588026644 -1.5708003469
H 2.7649067538 1.1523380091 0.0939144959
H 3.107366298 -0.1462899047 -1.0564765132
H 0.3292529548 1.2277822987 1.1543280226
H 0.1061583719 1.7863578258 -0.5079980283
H -2.0078427895 1.3199546791 0.5376082784
H -1.7404412187 0.888305781 -1.919213816
H -3.0263067037 -0.0612778797 -1.1715442073
H -1.4930891694 -0.8252107859 -1.5669341527
H -2.7084984771 -0.9464103862 1.2075183535
H -1.0954730054 -1.5716688653 0.8470165961
H -1.312546458 -0.4174355414 2.153748351
H 2.0302088153 -1.6168280316 0.495450601
*
