! r2scan-3c def2/J RI DEFGRID2 scfconv6 printgap
%output
    printlevel normal
end
* xyz 0 1
C 1.878585064 -1.0646057183 0.3387469166
C 1.274875278 0.2351605312 0.8625829658
C 0.1806779123 0.8592461278 -0.0225467003
H -0.0361303614 1.8529480542 0.4127833459
C -1.1798604175 0.1338039011 -0.0999200474
C -1.1358030276 -1.1943232051 -0.8523600644
C -1.8052598729 -0.0435414341 1.2805232395
O 0.6318717351 1.0394664135 -1.3552692374
H 2.8513578548 -1.2315492695 0.7955470098
H 2.0058182979 -1.0124291885 -0.7396466765
H 1.2491829527 -1.9179593937 0.5694807044
H 0.8729941024 0.0909204782 1.8647327434
H 2.0736565403 0.9788606895 0.9404982206
H -1.8153578114 0.8116758997 -0.683298296
H -0.5497271575 -1.0866684896 -1.760534675
H -0.7052701688 -1.9809981117 -0.2413757503
H -2.1458416509 -1.4915217684 -1.1249410827
H -1.8178733394 0.8983523482 1.8243527661
H -1.2537670079 -0.7765663708 1.8634984922
H -2.8284930239 -0.3948633227 1.1757571111
H 1.4451266942 1.5611135456 -1.342332998
*
