  27
  -61.1262030900000        1.00000000000000      !mtd9
 C          2.8564087462        0.0006468230       -0.8170698259
 C          2.4791586242       -1.1297423421        0.1384590642
 H          2.5982376527       -2.1477288141       -0.2196583120
 C          1.0643088996       -0.7755912110        0.6427511931
 H          0.9505617744       -1.2013345336        1.6434324908
 C          1.0642002193        0.7751268856        0.6434733304
 H          0.9502508010        1.2000735865        1.6444977372
 C          2.4790758398        1.1299545015        0.1397036722
 H          2.5981121940        2.1483422917       -0.2172810861
 C          3.3345703448        0.7344075420        1.3547845322
 H          3.3369547678        1.3416743458        2.2489849443
 C          3.3346174102       -0.7353522666        1.3539868280
 H          3.3370196362       -1.3435663356        2.2475931266
 O          4.4879221384       -0.0002724774        1.0845426687
 C         -0.2510021761        1.1173606187       -0.1109397435
 C         -1.3021388236        0.6699873064        0.9110560201
 C         -1.3020212426       -0.6707144614        0.9107344988
 C         -0.2509563967       -1.1174257905       -0.1117006506
 C         -0.5094054794        0.0003047774       -1.1517716215
 Cl        -2.2365918771        0.0008376598       -1.6677510788
 Cl         0.3438388250        0.0008593327       -2.6786657153
 Cl        -0.3871892420       -2.7625065740       -0.6853364757
 Cl        -2.1651808589       -1.7449816922        1.8861907375
 Cl        -2.1655503042        1.7436089678        1.8870182476
 Cl        -0.3871329109        2.7626711950       -0.6835471347
 H          2.3276953489        0.0012138540       -1.7532513533
 H          3.9273719529        0.0008193117       -1.0141117626
