  21
        -42.50329058
 C         -3.3419238486        1.3452239495       -0.5172807506
 O         -2.1093599694        1.5810957147        0.1379776438
 C         -1.1051487642        0.6449628588        0.0726230901
 C         -1.2307106912       -0.7376395230        0.0556346125
 C         -0.0969446577       -1.5355032298       -0.0095067003
 C          1.1520346811       -0.9558041927       -0.0338242918
 C          1.3317412845        0.4348407852        0.0112325560
 C          0.1810174822        1.2261381269        0.0588416202
 O          0.2488399337        2.5869307396        0.0938619325
 O          2.6176477154        0.8531722370       -0.0098776875
 C          2.9347027368        2.2265057690        0.0782731334
 Cl         2.5516679618       -1.9507634212       -0.1084035554
 Cl        -2.7565394202       -1.5522967158        0.1518582366
 H         -3.7616644806        2.3329203026       -0.7110173578
 H         -4.0288186248        0.7813779437        0.1158137914
 H         -3.1976979391        0.8188829071       -1.4623301004
 H         -0.1937663685       -2.6081126014       -0.0295453454
 H         -0.6665890715        2.9094781444        0.1188199934
 H          4.0232719108        2.2638139184        0.0700938093
 H          2.5591850231        2.6662284945        1.0037369440
 H          2.5420276492        2.7850033090       -0.7730496747
