  21
        -42.50329058
 C         -3.3419238486        1.3452239495       -0.5172807506
 O         -2.1093599694        1.5810957147        0.1379776438
 C         -1.1051487642        0.6449628588        0.0726230901
 C         -1.2307106912       -0.7376395230        0.0556346125
 C         -0.0969446577       -1.5355032298       -0.0095067003
 C          1.1520346811       -0.9558041927       -0.0338242918
 C          1.3317412845        0.4348407852        0.0112325560
 C          0.1810174822        1.2261381269        0.0588416202
 O          0.2488399337        2.5869307396        0.0938619325
 O          2.6176477154        0.8531722370       -0.0098776875
 C          2.9347027368        2.2265057690        0.0782731334
 Cl         2.5516679618       -1.9507634212       -0.1084035554
 Cl        -2.7565394202       -1.5522967158        0.1518582366
 H         -3.7616644806        2.3329203026       -0.7110173578
 H         -4.0288186248        0.7813779437        0.1158137914
 H         -3.1976979391        0.8188829071       -1.4623301004
 H         -0.1937663685       -2.6081126014       -0.0295453454
 H         -0.6665890715        2.9094781444        0.1188199934
 H          4.0232719108        2.2638139184        0.0700938093
 H          2.5591850231        2.6662284945        1.0037369440
 H          2.5420276492        2.7850033090       -0.7730496747
  21
        -42.50301700
 C         -3.4527689024        1.3267255659       -0.0764695519
 O         -2.0757674482        1.6285119592       -0.0246420104
 C         -1.1058690000        0.6580584431       -0.0138103984
 C         -1.2323920057       -0.7241565640       -0.0197274058
 C         -0.0958076485       -1.5239530815       -0.0050281467
 C          1.1555447686       -0.9540449899        0.0163720146
 C          1.3369082058        0.4374157717        0.0243203189
 C          0.1881212727        1.2299087221        0.0087859179
 O          0.2692372498        2.5924047848        0.0152933925
 O          2.6241577089        0.8511585011        0.0467901046
 C          2.9481174594        2.2255808424        0.0483514819
 Cl         2.5522263509       -1.9559060696        0.0352791784
 Cl        -2.7455404699       -1.5775104683       -0.0426166403
 H         -3.7114883498        0.7736896355       -0.9809014794
 H         -3.9478146590        2.2978937681       -0.0934315077
 H         -3.7780182380        0.7713367929        0.8047713698
 H         -0.1980065066       -2.5963209010       -0.0098805289
 H         -0.6383258567        2.9314502103        0.0009559532
 H          2.5517931029        2.7308659950        0.9305388319
 H          2.5821324408        2.7252426441       -0.8500690588
 H          4.0368465040        2.2561171265        0.0668051990
  21
        -42.50292304
 C         -3.1042793040        1.4996215867       -0.8098587909
 O         -2.1730809429        1.4867683881        0.2626698064
 C         -1.1152007221        0.6059279853        0.1421797862
 C         -1.2289981896       -0.7776542096        0.1158280192
 C         -0.0928482898       -1.5630154619        0.0075818338
 C          1.1465907396       -0.9594438340       -0.0546170034
 C          1.3130782372        0.4318378582        0.0002330873
 C          0.1538654606        1.2105020080        0.0971317341
 O          0.1933416416        2.5691107747        0.1566044795
 O          2.5918646610        0.8676146022       -0.0601977346
 C          2.8900495499        2.2433981562        0.0532508087
 Cl         2.5562022152       -1.9335019739       -0.1872227045
 Cl        -2.7634660389       -1.5572083043        0.2548585137
 H         -3.6470087439        0.5571580154       -0.8878382635
 H         -2.6014880820        1.7072180088       -1.7596388406
 H         -3.8020912024        2.3024204349       -0.5792440468
 H         -0.1724949660       -2.6368003898       -0.0192040239
 H         -0.7290346696        2.8609525992        0.2665127672
 H          2.5456272897        2.6506649040        1.0053980796
 H          2.4534278251        2.8181739476       -0.7651797770
 H          3.9764887281        2.3004995783        0.0020927666
  21
        -42.49846003
 C         -3.5115936322        1.1991936752       -0.4769500906
 O         -2.2776807313        1.5466872908        0.1218012043
 C         -1.2140511117        0.6812897985        0.0653631321
 C         -1.2244250409       -0.7107495164        0.0410856904
 C         -0.0283136970       -1.4032177407       -0.0076203029
 C          1.1942516861       -0.7481833429       -0.0153939249
 C          1.2566725983        0.6447772601        0.0325167599
 C          0.0274009440        1.3323728300        0.0686262239
 O          0.0642821358        2.6840422375        0.1097829928
 O          2.3214853733        1.4761931311        0.0408707457
 C          3.6509971288        1.0085703842        0.0003347126
 Cl         2.5852495356       -1.7863629487       -0.0765929172
 Cl        -2.6740856717       -1.6581009905        0.1045615483
 H         -4.0242728975        2.1455977142       -0.6503555549
 H         -4.1184070138        0.5788502216        0.1850439074
 H         -3.3642397795        0.6858959291       -1.4289970464
 H         -0.0447243259       -2.4808233707       -0.0308603786
 H         -0.8533414411        2.9982797490        0.1241640608
 H          3.8938110144        0.3929376290        0.8692757729
 H          4.2605828396        1.9116748293        0.0197455552
 H          3.8609270568        0.4533268338       -0.9165920498
  21
        -42.49802874
 C         -3.2696692186        1.3746019602       -0.8169053920
 O         -2.3451301163        1.4341614137        0.2594088103
 C         -1.2245052946        0.6370410864        0.1425498584
 C         -1.2207188734       -0.7553948841        0.1142850839
 C         -0.0228905404       -1.4335937087        0.0160115607
 C          1.1872612679       -0.7515687902       -0.0411032130
 C          1.2348375132        0.6406606407        0.0175998548
 C         -0.0034753153        1.3135851868        0.1080813219
 O          0.0040632356        2.6622210231        0.1688966335
 O          2.2880197096        1.4856183257       -0.0127573944
 C          3.6252046289        1.0375142951       -0.0042868787
 Cl         2.5906768622       -1.7643588813       -0.1818724971
 Cl        -2.6833134624       -1.6648048498        0.2366919456
 H         -2.7834374851        1.6355098624       -1.7621541255
 H         -4.0366260652        2.1101961914       -0.5823157470
 H         -3.7270754219        0.3886578475       -0.9068529081
 H         -0.0199609032       -2.5110917561       -0.0127465620
 H         -0.9207147119        2.9460700295        0.2681373989
 H          3.8782710150        0.4902045432       -0.9150051961
 H          3.8428245099        0.4210935426        0.8705557594
 H          4.2202082942        1.9493012228        0.0423475693
