! pbe def2-sv(p) def2/J RI DEFGRID1 loosescf d4 GCP(DFT/SV(P)) printgap
%output
    printlevel normal
end
* xyz 0 1
C -0.2256458691 -2.8457033098 -0.1630704652
C 0.5331192262 -1.5635756132 -0.0428261574
C 1.9019048649 -1.4610336836 -0.3396514325
N 2.5632439724 -0.3243460217 -0.2254989387
C 1.8975830204 0.7666765364 0.1863616443
N 0.5810414455 0.7759070789 0.4731138763
C -0.0556434646 -0.3690429287 0.3481384344
O -1.4074088671 -0.3269221957 0.6853310218
C -2.2624656261 -0.0094007551 -0.3294526641
O -1.8867143237 0.0973684658 -1.4879940855
N -3.5210456472 0.1422830855 0.0842561371
C -4.5687211904 0.4203152629 -0.8753864674
C -3.9435182774 0.0163033775 1.4624524514
N 2.5797533759 1.9077164182 0.3227940108
C 1.9485300846 3.1348079608 0.7414742158
C 3.989872056 1.9910020614 0.027724907
C 2.6791916759 -2.6473420326 -0.8049713824
H -0.3181947905 -3.1308708659 -1.2109975617
H 0.2898645402 -3.644515349 0.3660268059
H -1.2235679641 -2.7322371989 0.2533855873
H -4.1263686504 0.467235473 -1.8674754577
H -5.0408016097 1.3741935144 -0.6401924982
H -5.3164369758 -0.3723888529 -0.8432236294
H -4.5312206531 0.8928495316 1.73419108
H -3.0746703571 -0.0528125299 2.1092641398
H -4.5582891257 -0.8773063953 1.5816057936
H 2.0643471916 3.8938806512 -0.034228126
H 2.4131196057 3.4935235916 1.6615532883
H 0.8933538492 2.9476975521 0.9127572023
H 4.5287442575 2.3375580959 0.9107474257
H 4.1566340612 2.6955031006 -0.7889564535
H 4.3465855441 1.007244349 -0.2593130994
H 3.6981827281 -2.3478367361 -1.0255720922
H 2.6845051832 -3.4135588234 -0.0325971107
H 2.217314859 -3.0677076272 -1.6953211225
*
