! wb97x-v def2-tzvp def2/J RIJCOSX DEFGRID2 scfconv7 GCP(DFT/TZ) printgap
%output
    printlevel normal
end
* xyz 0 1
C 2.6136436543885004 -0.8132441153144739 -0.131255645726556
C 1.9920135799794745 0.5819296837143405 -0.12784723573629905
C 0.5510564384400257 0.6165414989158706 0.3930234657386095
C -0.39692204477480986 -0.20995962653940903 -0.4669926402063779
S -2.1295688658319856 0.010156442790523464 0.15571962633765102
H 3.67087101559012 -0.7686646188824021 -0.4116066572842003
H 2.11417022549382 -1.4795703716044044 -0.8416500764448546
H 2.5484092720223184 -1.2721803954568018 0.8620627749776775
H 2.0193846158717252 1.0017577739909678 -1.141295905955564
H 2.5964475090865897 1.2456849254697056 0.5012019106323916
H 0.20561497236247592 1.6574847437890594 0.41693568935916314
H 0.526966368114877 0.24504575352190847 1.4254708378971792
H -0.3537980637819839 0.11770705067229274 -1.5102746137148755
H -0.1513202599790334 -1.2731933522326344 -0.4187940922661024
H -2.717284919869201 -0.8663516500419974 -0.6790707442120653
*
