! r2scan-3c def2/J RI DEFGRID2 scfconv6 printgap
%output
    printlevel normal
end
%cpcm
    smd true
    smdsolvent "water"
end
* xyz 0 1
C 1.1016836094 1.4357531547 0.2616411102
C 0.7449884286 0.0594058235 -0.2848476005
C 1.9376290627 -0.8829882935 -0.3169910947
O -0.2495669456 -0.5500216751 0.5852067887
C -1.511875948 -0.35859063 0.3290797919
O -1.9865309217 0.2809599737 -0.5770807612
H 1.4837582195 1.3448431887 1.274972521
H 1.8593009173 1.8907086996 -0.3679614241
H 0.22182591 2.0753755425 0.2700536617
H 0.2920145124 0.1575913267 -1.2789668132
H 2.3465435239 -0.9919534588 0.6832797673
H 2.7001706463 -0.4796329605 -0.9749781854
H 1.6359897861 -1.8612507376 -0.6805590875
H -2.1236952782 -0.8864573364 1.0776530925
*
