! r2scan-3c def2/J RI DEFGRID2 scfconv6 printgap
%output
    printlevel normal
end
%cpcm
    smd true
    smdsolvent "water"
end
* xyz 0 1
C 2.0025271202 1.1295720788 -1.0405688003
C 2.0973045206 -0.2025357393 -0.3019062312
C 3.5314514521 -0.4572276279 0.1557472256
C 1.1447825292 -0.2269893314 0.9065896176
C -0.2934213254 -0.1365656652 0.4866464727
C -1.0044409393 1.0508844478 0.60477704
C -2.3216693975 1.1324873869 0.1872166876
C -2.9478287185 0.0244940141 -0.3570541492
C -2.2496225977 -1.1655906391 -0.4779777799
C -0.9339918116 -1.2435344678 -0.058714155
H 2.2941333943 1.9475115435 -0.3850109289
H 0.985323532 1.3065913267 -1.3826641114
H 2.661795872 1.1315797546 -1.9054409839
H 1.7997002818 -1.0023224197 -0.9893307865
H 3.849865266 0.3173276309 0.8501643856
H 3.612420965 -1.4204124079 0.6542641908
H 4.2078039491 -0.4535673077 -0.6957147228
H 1.3918315132 0.6047642883 1.5689428624
H 1.3020845699 -1.1585962538 1.4550034147
H -0.5225773425 1.920157972 1.0289329201
H -2.8606182803 2.0633564712 0.2867313564
H -3.9752799674 0.0867180582 -0.6835181277
H -2.7331866183 -2.0349975778 -0.8989034051
H -0.3954441569 -2.175943623 -0.1518174598
*
