! wb97x-v def2-tzvp def2/J RIJCOSX DEFGRID2 scfconv7 GCP(DFT/TZ) printgap
%output
    printlevel normal
end
%cpcm
    smd true
    smdsolvent "water"
end
* xyz 0 1
C 2.627157449158794 -0.8277287442104038 -0.03307535548355039
C 1.9895164620248362 0.5392972062879348 -0.274987941536318
C 0.5676767401053745 0.6718439098644471 0.2844569392732069
C -0.41936060953355075 -0.26945996014748097 -0.3921030442740554
S -2.163428590403449 -0.03807515291809183 0.18218249470341197
H 2.6139507769417376 -1.0810426435325586 1.033413668369793
H 3.670034226192261 -0.8367433373630347 -0.3661767935800665
H 2.1038772236410743 -1.6233534190722811 -0.5727568039529304
H 1.9755148851523994 0.7565724812368194 -1.3508736117996951
H 2.611099270113496 1.313569472875304 0.19039022172339604
H 0.22084984121511192 1.7032366633907972 0.15488673840739145
H 0.5799410622591072 0.4697154974779168 1.3635316022802493
H -0.4543746136366477 -0.08443639934434553 -1.471311266763104
H -0.15193628305061366 -1.3184071282073937 -0.24345061168380758
H -1.9457167726271796 -0.38799796898897376 1.4636539431263873
*
