! wb97x-v def2-tzvp def2/J RIJCOSX DEFGRID2 scfconv7 GCP(DFT/TZ) printgap
%output
    printlevel normal
end
%cpcm
    smd true
    smdsolvent "water"
end
* xyz 0 1
C 2.255024094700308 -0.5504593648824557 0.5672877356995314
C 1.5132797775271576 -0.13847699908753253 -0.7012975892437938
C 0.5592213199534893 1.0423731796427391 -0.4994964793312663
C -0.5207088320848106 0.8327385348225521 0.5539341090748022
S -1.5939030681888078 -0.6187375190210087 0.10653848351515152
H 1.570403237917894 -0.9348887936788097 1.3304621573308126
H 2.795362240009427 0.29987674643079193 0.9991157208146693
H 2.9841651840221797 -1.3387919420195153 0.35503579847994887
H 0.9615670701957446 -0.9995999791204956 -1.100752651084508
H 2.2396673945304517 0.14124863925466574 -1.473789111476785
H 0.0877561932921326 1.3007909782833327 -1.4554299387693512
H 1.1401436711594493 1.9201394703576034 -0.18511719718741154
H -0.08342941378408136 0.6509987045640884 1.5391865681462422
H -1.160411562016269 1.7162887526350914 0.6149691963186303
H -2.5202570681032124 -0.41918202978518204 1.0622773895463449
*
