! pbe def2-sv(p) def2/J RI DEFGRID1 loosescf d4 GCP(DFT/SV(P)) printgap
%output
    printlevel normal
end
* xyz 0 1
C -1.1055340326 -0.1853109802 -0.5053570672
C 0.1168889102 0.378441058 0.2292476592
C 1.4370866747 -0.1426001259 -0.3737630825
O 1.7635714069 -1.4413249278 0.0559977349
O 0.0442512377 1.7858504545 0.1395255992
O -2.1592869491 -0.3453087711 0.4176503099
H -0.857236143 -1.1525298732 -0.9627361741
H -1.3718025702 0.5270556406 -1.2943787113
H 0.0556428631 0.0525452398 1.2776181289
H 2.2608233775 0.4892397313 -0.0340699781
H 1.3879088296 -0.0863981682 -1.4690280252
H 1.0685025162 -2.0597392632 -0.208098246
H 0.668486064 2.1886976352 0.7581649747
H -2.9770862383 -0.5485588408 -0.056643024
*
