  12
        -28.02917272
 C         -1.3167855810       -1.4847563409       -0.0000801230
 C          0.0378938395       -1.7599678120       -0.0000598968
 C          0.9651185196       -0.7279483767       -0.0000413815
 C          0.5267100961        0.5950364326       -0.0000888759
 C         -0.8303668412        0.8780987141       -0.0000487918
 C         -1.7436124976       -0.1647227533       -0.0000140843
 Cl        -3.4282194115        0.1912416248        0.0000577481
 Cl         1.6604517769        1.8872859413       -0.0000027490
 Cl         2.6477477123       -1.0859192334        0.0000633378
 H         -2.0364065511       -2.2872900272       -0.0001096447
 H          0.3852200974       -2.7807434955       -0.0000427518
 H         -1.1660103423        1.9025263066       -0.0000399764
