  12
  -12.6134967300000       9.751258861860332E-002 !gc
 C          1.2639533903       -0.7017974447       -0.0000053828
 C         -0.0000161830        0.1037281961        0.0000037861
 C         -0.0001139699        1.4262353817        0.0000051942
 C         -1.2638332437       -0.7019813489       -0.0000090623
 H          2.1399550093       -0.0587646646        0.0007320596
 H          1.3007108571       -1.3448042664        0.8790906693
 H          1.3013940644       -1.3437772695       -0.8798187132
 H         -0.9142005383        1.9957639079       -0.0000888319
 H          0.9138711271        1.9959247107       -0.0000086621
 H         -2.1398949737       -0.0591105296       -0.0014557064
 H         -1.3001973542       -1.3456345913       -0.8786401188
 H         -1.3015189474       -1.3433233045        0.8802544255
  12
  -12.6134967300000       9.751258861860332E-002 !gc
 C          1.2639387114       -0.7017734141        0.0000068621
 C         -0.0000253072        0.1037166538       -0.0000602724
 C         -0.0000912793        1.4262193445        0.0000213882
 C         -1.2638394062       -0.7019939275        0.0000031829
 H          2.1398607183       -0.0587395677       -0.0008162877
 H          1.3015035242       -1.3434636987        0.8799614611
 H          1.3007674484       -1.3449160112       -0.8790006006
 H         -0.9141488747        1.9957875414        0.0000975348
 H          0.9139011660        1.9958843920        0.0000270986
 H         -1.3009324882       -1.3443593072        0.8795293038
 H         -2.1398897051       -0.0591207382       -0.0001137348
 H         -1.3008558499       -1.3446064306       -0.8793411018
  12
  -12.6134967200000       9.751155675097828E-002 !gc
 C          1.2639489972       -0.7017704039        0.0000032664
 C         -0.0000259908        0.1037093749       -0.0000895964
 C         -0.0000949443        1.4262152283        0.0000191241
 C         -1.2638528539       -0.7019886698       -0.0000004127
 H          1.3017498532       -1.3428976191        0.8804073504
 H          1.3004279023       -1.3455556260       -0.8785031282
 H          2.1399618946       -0.0586563913       -0.0014135994
 H         -0.9140973782        1.9958700916        0.0002405763
 H          0.9139720849        1.9957997277       -0.0000407073
 H         -2.1398962849       -0.0590649276        0.0008120811
 H         -1.3013302344       -1.3439863533       -0.8798338112
 H         -1.3004923975       -1.3450054532        0.8791370395
  12
  -12.6134967200000       9.751155675097828E-002 !md4
 C          1.2639364155       -0.7017747960        0.0000127638
 C         -0.0000260331        0.1037124872       -0.0000461938
 C         -0.0001021153        1.4262308645        0.0000268667
 C         -1.2638322514       -0.7019804907        0.0000090846
 H          1.3015418017       -1.3434398456        0.8801701567
 H          1.3006001918       -1.3451987107       -0.8788559999
 H          2.1399253081       -0.0587133973       -0.0010966254
 H         -0.9141416613        1.9958304085        0.0000748790
 H          0.9139797630        1.9957714475       -0.0001150131
 H         -1.3011340386       -1.3439408966       -0.8798293324
 H         -1.3005406489       -1.3450031502        0.8791399545
 H         -2.1399448982       -0.0590709599        0.0004819334
  12
  -12.6134967100000       9.751052489408904E-002 !mtd12
 C          1.2639798736       -0.7017275092       -0.0000003801
 C         -0.0000497954        0.1036727110       -0.0000572948
 C         -0.0000633761        1.4261754357        0.0000136164
 C         -1.2638759153       -0.7019747129       -0.0000040595
 H          1.3014324545       -1.3440350619       -0.8795512609
 H          2.1398408078       -0.0586141853        0.0003695305
 H          1.3009958647       -1.3444082024        0.8793431477
 H         -0.9141347909        1.9957444221        0.0000556147
 H          0.9139096766        1.9958420265       -0.0000126516
 H         -2.1399939031       -0.0589225539        0.0003574718
 H         -1.3011427525       -1.3443793197       -0.8794977253
 H         -1.3007975647       -1.3444900493        0.8795092895
  12
  -12.6134967100000       9.751052489408904E-002 !mtd2
 C          1.2638830190       -0.7018042138       -0.0000045203
 C         -0.0000124145        0.1037525277        0.0000484740
 C         -0.0000970214        1.4262712637        0.0000037888
 C         -1.2637797104       -0.7020168033       -0.0000082001
 H          1.3014746008       -1.3434522400       -0.8800347381
 H          2.1398781737       -0.0588600431        0.0010395973
 H          1.3005537760       -1.3451248187        0.8788281359
 H         -0.9142137333        1.9957599146       -0.0002376939
 H          0.9138529381        1.9960128486        0.0001226101
 H         -1.3015967642       -1.3434702061        0.8802859988
 H         -2.1397871966       -0.0591742234       -0.0016873390
 H         -1.3000887773       -1.3456316254       -0.8787877929
  12
  -12.6134967100000       9.751052489408904E-002 !md3
 C          1.2639467478       -0.7017832716        0.0000044828
 C          0.0000008297        0.1037185932        0.0000212653
 C         -0.0001160571        1.4262053064        0.0000146654
 C         -1.2638152156       -0.7019592308        0.0000008032
 H          2.1399588129       -0.0587799979        0.0007327462
 H          1.3006899711       -1.3449130013        0.8790317421
 H          1.3013648379       -1.3436507482       -0.8798999130
 H         -0.9143387256        1.9955619270        0.0000420683
 H          0.9137029822        1.9961277288       -0.0001310081
 H         -1.3017319268       -1.3428555310       -0.8805555566
 H         -1.2999301333       -1.3460628432        0.8783015711
 H         -2.1399101205       -0.0591131797        0.0019871763
  12
  -12.6134967000000       9.750949304830211E-002 !mtd11
 C          1.2639183024       -0.7018237687       -0.0000021564
 C          0.0000079825        0.1037562813        0.0000134136
 C         -0.0001316484        1.4262570058        0.0000080897
 C         -1.2637913513       -0.7019855945       -0.0000058358
 H          1.3004796116       -1.3451454421       -0.8788755609
 H          2.1399064848       -0.0588809378       -0.0014421316
 H          1.3016732656       -1.3434585233        0.8799418011
 H         -0.9142819763        1.9956892141        0.0003258175
 H          0.9138174720        1.9960150502       -0.0000703079
 H         -1.3006861602       -1.3444840300       -0.8793507326
 H         -1.3009783401       -1.3445077904        0.8794034035
 H         -2.1399695056       -0.0591816336       -0.0000932980
  12
  -12.6134966900000       9.750846121325077E-002 !mtd8
 C          1.2639443668       -0.7017733553       -0.0000153325
 C         -0.0000059583        0.1037360958        0.0000549637
 C         -0.0001163127        1.4261997042       -0.0000079197
 C         -1.2638343532       -0.7019611326       -0.0000190124
 H          1.3023824182       -1.3420923298        0.8810184742
 H          1.2997106777       -1.3464913164       -0.8779328200
 H          2.1399722440       -0.0587744116       -0.0028948286
 H         -0.9142318950        1.9956853319        0.0001009449
 H          0.9138503501        1.9959189939       -0.0000516863
 H         -1.3007251597       -1.3447193644        0.8791879731
 H         -2.1400223246       -0.0591626098        0.0000339065
 H         -1.3007902397       -1.3442872623       -0.8796132969
  12
  -12.6118730600000       1.749337548299935E-002 !mtd9
 C          1.2716401230       -0.6985883511       -0.0000412583
 C         -0.0047880991        0.0983742545        0.0002818288
 C          0.0009384683        1.4214529326       -0.0000469979
 C         -1.2718723438       -0.6998659577       -0.0000449503
 H          1.8752339382       -0.4536752581        0.8725042329
 H          1.0655103437       -1.7655911254        0.0113845596
 H          1.8635303854       -0.4707376896       -0.8852618629
 H         -0.9092160060        1.9964290622       -0.0005124439
 H          0.9197968706        1.9835392001        0.0001595449
 H         -1.3093990544       -1.3432570796       -0.8790930024
 H         -1.3115505947       -1.3401044546        0.8812256493
 H         -2.1452630421       -0.0529858696       -0.0021777873
  12
  -12.6118727900000       1.748837811900136E-002 !gc
 C          1.2720795390       -0.6995724936        0.0000293780
 C          0.0047490603        0.0983258220       -0.0002648661
 C         -0.0010867703        1.4213890928        0.0000555733
 C         -1.2716727666       -0.6987891517        0.0000256641
 H          2.1454119914       -0.0526019755       -0.0013702412
 H          1.3112190672       -1.3401003594        0.8810779363
 H          1.3102119465       -1.3425983251       -0.8792198897
 H         -0.9198396801        1.9836311142       -0.0000537539
 H          0.9091111444        1.9963645005        0.0003133719
 H         -1.8742489162       -0.4557218334       -0.8737346979
 H         -1.0655158706       -1.7657921342       -0.0090998161
 H         -1.8648401158       -0.4693305243        0.8839252737
  12
  -12.6118726900000       1.748652760577337E-002 !md4
 C          1.2719780067       -0.6996568841       -0.0000168094
 C          0.0047463810        0.0983741291        0.0001194435
 C         -0.0011210029        1.4214624260       -0.0000128946
 C         -1.2715544316       -0.6988258603       -0.0000205254
 H          2.1452371842       -0.0526304117       -0.0009263688
 H          1.3111192825       -1.3407716862        0.8806025521
 H          1.3102068372       -1.3420874983       -0.8797003153
 H         -0.9198881498        1.9836973349        0.0001646424
 H          0.9090589325        1.9964641900       -0.0002534469
 H         -1.8725089206       -0.4578737770        0.8754664644
 H         -1.8661914161       -0.4671039568       -0.8823386087
 H         -1.0652845456       -1.7658501844        0.0061602657
  12
  -12.6118726300000       1.748541739182669E-002 !gc
 C          1.2719964831       -0.6996418166       -0.0000094541
 C          0.0047447989        0.0983665159        0.0000451579
 C         -0.0011153206        1.4214471262       -0.0000013140
 C         -1.2715755752       -0.6988185209       -0.0000131697
 H          1.3088003801       -1.3446057586       -0.8778925817
 H          2.1452639541       -0.0526233507       -0.0040989293
 H          1.3125543987       -1.3382259425        0.8824017658
 H         -0.9198605640        1.9837065868        0.0002260413
 H          0.9090848085        1.9964168581       -0.0002886568
 H         -1.0653273089       -1.7658479842        0.0060046369
 H         -1.8724132736       -0.4580058472        0.8755849971
 H         -1.8663702672       -0.4669645174       -0.8821901505
  12
  -12.6118725900000       1.748467728835536E-002 !gc
 C          1.2719375712       -0.6996887288        0.0000386015
 C          0.0047358453        0.0984080385       -0.0003126269
 C         -0.0011275495        1.4214949328        0.0000677480
 C         -1.2715112458       -0.6988482830        0.0000348888
 H          1.3094650116       -1.3438168443       -0.8784371262
 H          2.1451952603       -0.0526563476       -0.0027945641
 H          1.3118077715       -1.3391053977        0.8818938696
 H         -0.9198674535        1.9837839784        0.0007292479
 H          0.9090837313        1.9964457557       -0.0003364339
 H         -1.8656610854       -0.4676584454        0.8828337840
 H         -1.8729727958       -0.4574020830       -0.8749738047
 H         -1.0651304434       -1.7658913795       -0.0068725592
  12
  -12.6118725000000       1.748301217006315E-002 !gc
 C          1.2719450774       -0.6996905067        0.0000353270
 C          0.0047467483        0.0983909796       -0.0003489582
 C         -0.0011448104        1.4214786492        0.0000661842
 C         -1.2715094559       -0.6988262398        0.0000316145
 H          1.3095798127       -1.3439176755       -0.8783577282
 H          2.1451768307       -0.0526373951       -0.0027523486
 H          1.3117367285       -1.3390220439        0.8819375483
 H         -0.9199049967        1.9837163342       -0.0004308886
 H          0.9090371992        1.9964735096        0.0014150756
 H         -1.8721922458       -0.4582543548       -0.8757395327
 H         -1.0652010338       -1.7658518239       -0.0056016498
 H         -1.8663473124       -0.4666514753        0.8821015684
  12
  -12.6118723800000       1.748079225899764E-002 !gc
 C          1.2720460582       -0.6995848685       -0.0000038781
 C          0.0047362126        0.0983507227       -0.0000622910
 C         -0.0010579866        1.4214325965        0.0000101115
 C         -1.2716623304       -0.6988459323       -0.0000075936
 H          1.3135827002       -1.3362910495        0.8837514015
 H          1.3077935072       -1.3464026547       -0.8765634644
 H          2.1453684431       -0.0526217795       -0.0064231515
 H         -0.9197514299        1.9837780340        0.0005924696
 H          0.9092317254        1.9963258904       -0.0004156675
 H         -1.0654847100       -1.7659565025        0.0041467996
 H         -1.8714669370       -0.4594750339        0.8766734328
 H         -1.8676790214       -0.4654974920       -0.8810032978
