  12
        -12.61349673
 C          1.2639533903       -0.7017974447       -0.0000053828
 C         -0.0000161830        0.1037281961        0.0000037861
 C         -0.0001139699        1.4262353817        0.0000051942
 C         -1.2638332437       -0.7019813489       -0.0000090623
 H          2.1399550093       -0.0587646646        0.0007320596
 H          1.3007108571       -1.3448042664        0.8790906693
 H          1.3013940644       -1.3437772695       -0.8798187132
 H         -0.9142005383        1.9957639079       -0.0000888319
 H          0.9138711271        1.9959247107       -0.0000086621
 H         -2.1398949737       -0.0591105296       -0.0014557064
 H         -1.3001973542       -1.3456345913       -0.8786401188
 H         -1.3015189474       -1.3433233045        0.8802544255
