  22
  -30.7667595500000       0.500000000000000      !mtd12
 C         -3.5238197513        0.0002558797        0.0009516543
 C         -2.8276287057        1.1151566465        0.4367793625
 C         -1.4451494745        1.1170334695        0.4333543491
 C         -0.7355301727       -0.0000298263       -0.0008842195
 C         -1.4459307086       -1.1169174347       -0.4342763656
 C         -2.8284164055       -1.1147720791       -0.4359050907
 C          0.7355365931       -0.0002059893       -0.0009674836
 C          1.4457705513        1.1167732659       -0.4344362648
 C          2.8282462823        1.1149435934       -0.4358098752
 C          3.5237790633        0.0000262028        0.0010533340
 C          2.8278133663       -1.1151186061        0.4366516246
 C          1.4453233967       -1.1171520452        0.4332298687
 H         -4.6038967665        0.0001521055        0.0021116862
 H         -3.3649840830        1.9866062334        0.7822901564
 H         -0.9069747877        1.9838516342        0.7889999735
 H         -0.9083896361       -1.9837071320       -0.7910233966
 H         -3.3663984842       -1.9862021276       -0.7804331521
 H          0.9080293661        1.9833291284       -0.7914116778
 H          3.3660665229        1.9862410878       -0.7809492928
 H          4.6038897038        0.0001689394        0.0019665351
 H          3.3653560402       -1.9863220203        0.7823991797
 H          0.9073732132       -1.9840353499        0.7891377219
  22
  -30.7667595500000       0.500000000000000      !mtd12
 C         -3.5238001990        0.0008667838        0.0001639670
 C         -2.8281935416       -0.4445614561        1.1115917641
 C         -1.4457405759       -0.4430441340        1.1134468558
 C         -0.7355170222       -0.0006958393       -0.0000633489
 C         -1.4453891705        0.4422853772       -1.1135253586
 C         -2.8278636542        0.4455099240       -1.1114436930
 C          0.7355235514       -0.0007293963        0.0000184528
 C          1.4457203400       -0.4241575965       -1.1208580099
 C          2.8281912893       -0.4259031192       -1.1189375678
 C          3.5238098383        0.0007488526       -0.0001590596
 C          2.8278636994        0.4264012341        1.1188649456
 C          1.4454015846        0.4230588080        1.1208893748
 H         -4.6039048055        0.0014935696        0.0003235817
 H         -3.3660139419       -0.7963200043        1.9802359552
 H         -0.9080539580       -0.8066885987        1.9772758796
 H         -0.9073699272        0.8054170553       -1.9773894669
 H         -3.3653910140        0.7979871485       -1.9799626858
 H          0.9080031407       -0.7730562896       -1.9907165958
 H          3.3659927503       -0.7628654463       -1.9934201299
 H          4.6039048752        0.0011733097       -0.0002978094
 H          3.3653849413        0.7640611686        1.9932479996
 H          0.9073747754        0.7714264884        1.9908424321
