  11
  -17.6115325600000       0.166669900057374      !mtd12
 C          1.7834726885        0.6180859012        0.3448361100
 C          0.9816843902       -0.2996604839       -0.5660124685
 O         -0.0916447579       -0.9301194580        0.1463011517
 C         -1.2185083728       -0.2536820157        0.2580824107
 O         -1.4574547036        0.8302121366       -0.1855730995
 H          2.6228461002        1.0333115447       -0.2053981182
 H          1.1565645990        1.4333170199        0.6977157024
 H          2.1591099436        0.0641857825        1.2017139890
 H          1.5961933657       -1.1207807804       -0.9398518062
 H          0.5623580145        0.2672066018       -1.4033645849
 H         -1.9378654362       -0.8628496522        0.8327833987
  11
  -17.6115325500000       0.166668136374275      !mtd6
 C          1.7835660327        0.6180543911        0.3448358846
 C          0.9816700768       -0.2996171724       -0.5659927373
 O         -0.0916503914       -0.9301062738        0.1463057292
 C         -1.2185243717       -0.2536898746        0.2580886375
 O         -1.4575060924        0.8301888251       -0.1855963673
 H          2.1605690544        0.0637576429        1.2008442701
 H          2.6219930248        1.0345834333       -0.2058641735
 H          1.1562496570        1.4323906958        0.6990630861
 H          1.5961063778       -1.1207209857       -0.9399918956
 H          0.5623138535        0.2673805912       -1.4032365344
 H         -1.9378713513       -0.8628870832        0.8327738653
  11
  -17.6115325500000       0.166668136374275      !mtd10
 C          1.7831970530        0.6302985416       -0.3215619734
 C          0.9815216407       -0.3200172281        0.5553768124
 O         -0.0916515705       -0.9244795570       -0.1793491752
 C         -1.2182659494       -0.2442316022       -0.2676175119
 O         -1.4572539184        0.8231963312        0.2142621746
 H          1.1563044303        1.4577669329       -0.6446880976
 H          2.6225423107        1.0253136467        0.2434125894
 H          2.1589082779        0.1078709761       -1.1979266426
 H          0.5620312273        0.2161005050        1.4126458312
 H          1.5961020466       -1.1540586597        0.8992754388
 H         -1.9374255813       -0.8323288893       -0.8641063006
  11
  -17.6115325300000       0.166664609064692      !mtd4
 C          1.7834053995        0.6180832606        0.3448713061
 C          0.9816887063       -0.2996744467       -0.5660548488
 O         -0.0916471147       -0.9301277058        0.1462577663
 C         -1.2184461067       -0.2536448421        0.2581652184
 O         -1.4574482949        0.8302040323       -0.1856174613
 H          1.1568147392        1.4337903879        0.6971585018
 H          2.1582233626        0.0642610352        1.2021130899
 H          2.6233406969        1.0326189411       -0.2049960877
 H          1.5961416799       -1.1208071967       -0.9399630465
 H          0.5623350167        0.2672392569       -1.4033507757
 H         -1.9377048059       -0.8626974660        0.8331286008
  11
  -17.6115325300000       0.166664609064692      !mtd10
 C          1.7830958025        0.6303220573       -0.3215846787
 C          0.9815155379       -0.3200176846        0.5553675666
 O         -0.0916937935       -0.9245429109       -0.1792779402
 C         -1.2181849652       -0.2441652921       -0.2677389089
 O         -1.4571966079        0.8231695872        0.2143439623
 H          2.1587041214        0.1078925612       -1.1979899892
 H          1.1561849041        1.4577986968       -0.6446712496
 H          2.6225501342        1.0253936070        0.2432316036
 H          0.5620594529        0.2160957953        1.4126355896
 H          1.5962147326       -1.1539445502        0.8993100668
 H         -1.9371758937       -0.8322063878       -0.8645048568
  11
  -17.6115325300000       0.166664609064692      !md8
 C          1.7820870886        0.6312046597       -0.3213101378
 C          0.9818258988       -0.3209940425        0.5549008352
 O         -0.0918049170       -0.9249227451       -0.1796501132
 C         -1.2181417731       -0.2440591103       -0.2674106308
 O         -1.4564130819        0.8235088733        0.2145769456
 H          2.6212530363        1.0266222133        0.2436301114
 H          2.1579817434        0.1102296613       -1.1984790365
 H          1.1540952396        1.4582412711       -0.6431968244
 H          0.5629664342        0.2135117062        1.4134719374
 H          1.5971573251       -1.1552845621        0.8968535685
 H         -1.9377825838       -0.8317949897       -0.8636808289
