! r2scan-3c def2/J RI DEFGRID2 scfconv6 printgap
%output
    printlevel normal
end
* xyz 0 1
C -3.1818268974 0.5728851407 0.0183963484
C -1.7718093702 0.3184379898 -0.4981104717
C -0.8191168092 -0.0547319065 0.6460760564
C 0.5405379649 -0.3828425824 0.0924885819
O 0.7958154306 -1.3415077161 -0.6064436539
O 1.4470777488 0.5254234809 0.4355998959
C 2.7807680673 0.3488129421 -0.0502625195
H -3.1823490613 1.3876816559 0.7377730819
H -3.8397156987 0.8379518585 -0.8046183116
H -3.5765045992 -0.3164916971 0.5029113377
H -1.3964777184 1.2127492824 -0.9994783725
H -1.7806562738 -0.4959018833 -1.2253702673
H -1.2039731344 -0.9387681864 1.1561647103
H -0.7254389235 0.7693433717 1.3517945862
H 3.3300084228 1.226462319 0.2750676584
H 2.7737015446 0.2682523446 -1.1378265768
H 3.2112728062 -0.5607731333 0.3698419096
*
