  12
  -39.7282535500000       0.322067717298681      !mtd3
 C          0.0657155976       -0.1184732627       -0.2593560469
 H         -0.2477877536        0.1564972278       -1.2743638997
 C          1.4860747508        0.4154004074       -0.0133875832
 F          1.9622975486        0.0752370157        1.1769574800
 F          1.5017828383        1.7495233178       -0.0861757299
 F          2.3335362983       -0.0366236322       -0.9377254512
 O         -0.7590547479        0.4385054574        0.7223020737
 C         -2.0704004777        0.5840126674        0.4112442113
 F         -2.6668461222       -0.5838186049        0.1169131486
 F         -2.2331733824        1.3539749375       -0.6862703867
 Cl         0.1176251409       -1.9016361546       -0.1495607440
 H         -2.5795042405        1.0523924600        1.2659290731
  12
  -39.7282535400000       0.322064309212461      !md8
 C          0.0474960260        0.0324764468       -0.2867845709
 H         -0.3355324595        0.7756011285       -0.9975519501
 C          1.4815515630        0.4159269896        0.1123398730
 F          1.4923465347        1.5997359116        0.7320020692
 F          2.2626694031        0.5296980316       -0.9617328040
 F          2.0393548076       -0.4673133832        0.9298802013
 O         -0.7072094309       -0.0190792383        0.8886889330
 C         -2.0368573673        0.2190526435        0.7745930227
 F         -2.6523959408       -0.6538880865       -0.0410350192
 F         -2.2744731509        1.4358214381        0.2391492117
 Cl         0.1065276761       -1.5539927941       -1.1078891242
 H         -2.4858181753        0.1659943537        1.7769443284
  12
  -39.7282535400000       0.322064309212461      !mtd9
 C          0.0769039443       -0.2344776938       -0.1572750502
 H         -0.1656192891       -0.5182120095       -1.1891331520
 C          1.4979322191        0.3505270661       -0.1209218520
 F          2.3826259342       -0.5109135820       -0.6229812563
 F          1.8899499860        0.6683426767        1.1057222568
 F          1.5649809684        1.4589692920       -0.8640741149
 O         -0.7848027634        0.7462751674        0.3423202741
 C         -2.0694325797        0.7113961525       -0.0890046281
 F         -2.6876318997       -0.4429639815        0.2140123789
 F         -2.1397652530        0.8110530603       -1.4339706855
 Cl         0.0593754897       -1.7099046947        0.8513162237
 H         -2.6119251828        1.5508158036        0.3694084203
  12
  -39.7247594800000       7.983324876084670E-003 !md3
 C          0.2187252900       -0.9684150154       -0.1654344917
 H          0.7179278673       -1.8327316024       -0.6177778068
 C          1.1926315389        0.2254172925       -0.2403584377
 F          2.3940628443       -0.1619081877        0.2027000177
 F          0.8259780318        1.2742094276        0.4823439956
 F          1.3595430588        0.6269774269       -1.5033979885
 O         -0.9702748377       -0.8297112104       -0.8773517175
 C         -1.7866080402        0.2468079191       -0.7016166608
 F         -1.2314759428        1.3880038553       -1.1519161425
 F         -2.1021786207        0.4701308387        0.5822675087
 Cl        -0.0461370875       -1.3346115380        1.5687450395
 H         -2.7062291582        0.0522991553       -1.2759531809
  12
  -39.7247594700000       7.983240397392639E-003 !mtd11
 C          0.1786807396       -0.2019284987       -0.9698958101
 H          0.6083141915       -0.0749548851       -1.9699433662
 C          1.1648842463        0.4133867195        0.0439275808
 F          0.8985406577        0.1219668498        1.3091998493
 F          1.2072641060        1.7429840270       -0.0777918987
 F          2.3973776769       -0.0367812007       -0.2164380454
 O         -1.0756726531        0.3992860335       -1.0408757428
 C         -1.8446213677        0.5805038946        0.0688667337
 F         -1.3158716340        1.4851866990        0.9147774881
 F         -2.0162056837       -0.5397741876        0.7853293639
 Cl         0.0906212949       -1.9596580835       -0.6310683229
 H         -2.8244220264        0.9495855739       -0.2731517711
  12
  -39.7247594600000       7.983155919594555E-003 !mtd11
 C          0.1811333637        0.9211478559       -0.3635533915
 H          0.6083482142        1.9294369905       -0.4048088990
 C          1.1591174927        0.0314678721        0.4309604453
 F          1.1821742589        0.3806493772        1.7201881811
 F          2.3977921946        0.2141962667       -0.0398466343
 F          0.8977003529       -1.2658342683        0.3583331669
 O         -1.0814706829        1.0908838835        0.1992968790
 C         -1.8525522566        0.0267047418        0.5583311293
 F         -1.3354957188       -0.6504789487        1.6011156654
 F         -2.0097146208       -0.8712493395       -0.4248800226
 Cl         0.1181151579        0.2840183514       -2.0374019199
 H         -2.8370052896        0.4246701744        0.8507713439
  12
  -39.7234299700000       1.955164537145158E-003 !md5
 C          0.2497359174       -0.4900225219       -0.8183519207
 H          0.5357549241       -0.6151553739       -1.8684352151
 C          1.2626274356        0.4590198508       -0.1418891989
 F          1.0971727265        0.5328046512        1.1782921490
 F          1.1607746279        1.6921753124       -0.6339595045
 F          2.5096881954        0.0426178489       -0.3663110685
 O         -1.0445719462       -0.0177883265       -0.8282508230
 C         -1.6745902518        0.2232304174        0.3719268854
 F         -2.9831485923        0.0698610780        0.1697219369
 F         -1.4899455320        1.4975650078        0.7589575754
 Cl         0.3917093582       -2.0820883752       -0.0006955943
 H         -1.3513676043       -0.4437629439        1.1906590783
  12
  -39.7234299500000       1.955123158693753E-003 !mtd14
 C          0.3306663605       -0.8874123623       -0.2752024365
 H          0.7520896013       -1.6381520017       -0.9526564629
 C          1.2956365947        0.3163839473       -0.2128768882
 F          2.5340662218       -0.0955795054        0.0615708304
 F          0.9533243660        1.2033272722        0.7207944127
 F          1.3383123370        0.9526657793       -1.3818376496
 O         -0.9182125640       -0.5827970510       -0.7715773108
 C         -1.6928874469        0.3391721697       -0.1044324868
 F         -2.9675263698        0.0393259605       -0.3535351764
 F         -1.4846953531        1.5758111457       -0.5893014065
 Cl         0.2588863843       -1.5916639202        1.3744303006
 H         -1.5291982682        0.3571796297        0.9875399321
  12
  -39.7234299500000       1.955123158693753E-003 !mtd12
 C          0.2816257793       -0.3174019360       -0.8900363173
 H          0.5888326785       -0.2310982334       -1.9380497424
 C          1.2448150303        0.5230031065       -0.0239286471
 F          1.1007620492        1.8224823466       -0.2765140205
 F          2.5109130184        0.2029002544       -0.2948991301
 F          1.0566340674        0.3392035833        1.2823366719
 O         -1.0304447879        0.1001466096       -0.8406387168
 C         -1.6879476341        0.0880165915        0.3690133774
 F         -2.9861482171       -0.0701997364        0.1119076647
 F         -1.5587739962        1.2719775945        0.9929115932
 Cl         0.4753121338       -2.0290453201       -0.3839104402
 H         -1.3518432562       -0.7098636588        1.0547258195
  12
  -39.7230066000000       1.249153849973700E-003 !mtd14
 C          0.1384778429       -0.0429652915       -0.4390965627
 H         -0.1051360321        0.4560986443       -1.3872704234
 C          1.5203064975        0.4328022242        0.0400254155
 F          1.5134791280        1.7463001241        0.2639575315
 F          2.4478854763        0.1982575640       -0.8898433983
 F          1.9053413496       -0.1679847795        1.1573291624
 O         -0.7633765388        0.2440260960        0.5677876691
 C         -2.0855053498        0.0143732986        0.2704867826
 F         -2.4791261019        0.7871470880       -0.7644973555
 F         -2.7990475183        0.3743902708        1.3289357398
 Cl         0.2422365727       -1.8049909477       -0.7608449311
 H         -2.3060885581       -1.0377935008        0.0125324602
  12
  -39.7230065500000       1.249087759318046E-003 !mtd13
 C          0.1486627258       -0.2591159764       -0.3528488859
 H         -0.0576288207       -0.3016262322       -1.4312796610
 C          1.5295316896        0.3799313290       -0.1288224566
 F          1.8705883435        0.4167640575        1.1517834966
 F          1.5506528207        1.6286331353       -0.5932938834
 F          2.4742032792       -0.2980142937       -0.7832463971
 O         -0.7711252060        0.5036222988        0.3413903690
 C         -2.0905064049        0.1682645498        0.1534535565
 F         -2.4370059295        0.3176310731       -1.1432707145
 F         -2.8214194801        1.0198234155        0.8604977922
 Cl         0.2142627136       -1.9450438036        0.2569246186
 H         -2.3322694526       -0.8682616237        0.4526970889
  12
  -39.7230065400000       1.249074541604652E-003 !mtd1
 C          0.1540408259       -0.4346765259       -0.0326916633
 H          0.0026037823       -1.2671331042       -0.7337729465
 C          1.5510022070        0.1672480906       -0.2595434184
 F          2.4941035138       -0.7666515953       -0.1237743800
 F          1.8257721124        1.1474712216        0.5896420984
 F          1.6578151858        0.6552422325       -1.4949284231
 O         -0.7621890624        0.5856854162       -0.2020796401
 C         -2.0849700461        0.2136849142       -0.1708077106
 F         -2.3567152045       -0.6536360788       -1.1694710332
 F         -2.8094223724        1.3040939649       -0.3836209211
 Cl         0.1056902888       -1.1065292129        1.6304262802
 H         -2.3911142990       -0.2573220509        0.7814226527
  12
  -39.7204143900000       8.041159892552684E-005 !mtd12
 C          0.2175350223       -0.0608579909       -0.5258300010
 H          0.1461343608        0.2232906403       -1.5862170875
 C          1.5663718931        0.4301904194        0.0302260410
 F          1.7577111413        0.0836605036        1.2930825925
 F          1.6431522576        1.7602765204       -0.0461623788
 F          2.5780987887       -0.0597696579       -0.6881568876
 O         -0.7734094840        0.5146288973        0.2473761743
 C         -2.0699888081        0.3563992857       -0.1704735565
 F         -2.7533415172        1.4427875934        0.1904942824
 F         -2.6502527084       -0.6871173994        0.4422878004
 Cl         0.1950921309       -1.8515175738       -0.4434823467
 H         -2.1676193233        0.2117579188       -1.2635596484
  12
  -39.7204143100000       8.040479192256344E-005 !mtd14
 C          0.1855742753        0.5076988967       -0.1862771417
 H          0.0541576348        1.5995614155       -0.1569382117
 C          1.5689054946        0.1581271203        0.3914536557
 F          1.6519231429        0.5476381133        1.6651041180
 F          2.5323334503        0.7970319287       -0.2743963355
 F          1.8318407321       -1.1381222945        0.3446846141
 O         -0.7531810288       -0.1620577720        0.5758630583
 C         -2.0732776433        0.1362934273        0.3540804445
 F         -2.7257600142       -0.0071166130        1.5077234173
 F         -2.6245172257       -0.7277233302       -0.5124236161
 Cl         0.1531315383        0.0059969867       -1.9073118703
 H         -2.2358849160        1.1612935834       -0.0311297084
  12
  -39.7204142500000       8.039968704803873E-005 !gc
 C          0.2329382845       -0.5153739827       -0.0812873671
 H          0.2250455707       -1.4411371685       -0.6755558616
 C          1.5919186441        0.1830529284       -0.2686496911
 F          2.5913219518       -0.6342014250        0.0673713223
 F          1.7061945702        1.2857808643        0.4542972870
 F          1.7720382589        0.5120179878       -1.5492750271
 O         -0.7421066854        0.3804146462       -0.4783840180
 C         -2.0287403468       -0.0865899311       -0.5635389209
 F         -2.6422311981        0.5751209070       -1.5449077316
 F         -2.7111910043        0.1713538890        0.5629521832
 Cl         0.0732901394       -0.9789780784        1.6431288871
 H         -2.0919203161       -1.1736783424       -0.7628498668
