! r2scan-3c def2/J RI DEFGRID2 scfconv6 printgap
%output
    printlevel normal
end
%cpcm
    smd true
    smdsolvent "water"
end
* xyz 0 1
C -2.5139151552 0.6579262713 0.1540861265
C -1.1614218904 0.7196426627 -0.5476428097
C -0.0460244155 -0.0056332256 0.2139321981
H -0.0216335897 0.3656788165 1.2445025952
C -0.2693031108 -1.5169181508 0.2363527193
C 1.3078254355 0.3325176602 -0.4305326834
O 2.4232624112 -0.0750377134 0.3321364882
H -2.8911906724 -0.3598758144 0.1965961639
H -2.432591214 1.0398601137 1.1691124125
H -3.2392354185 1.2638144459 -0.3831894852
H -0.8774926646 1.7680149456 -0.6646517644
H -1.2488415654 0.2887284036 -1.5473798337
H -1.2184979996 -1.7551877694 0.7066938728
H 0.5118624422 -2.0161054441 0.8048346541
H -0.2750918449 -1.9132512203 -0.7772551507
H 1.4128418023 1.4168075889 -0.5214724446
H 1.3568946381 -0.102255272 -1.4384681944
H 2.4271295185 -1.0399108153 0.3929181805
*
