  22
  -58.1370534100000        1.00000000000000      !input
 C          4.3753143246        1.3894915595       -0.0000331870
 C          3.0989841510        1.9283730349       -0.0000967438
 C          1.9906689650        1.0994319683       -0.0000989614
 C          2.1594107346       -0.2855992386       -0.0000523163
 C          3.4305352986       -0.8308739764        0.0000267336
 C          4.5330687198        0.0139985672        0.0000398493
 Cl         6.1124689361       -0.6706868265        0.0001471645
 O          1.0887928799       -1.1490896664       -0.0000764667
 C         -0.1460458886       -0.5682425327       -0.0000709874
 C         -0.3156550840        0.8187781468       -0.0000764803
 C         -1.5987182406        1.3574653130       -0.0000214706
 C         -2.7162974115        0.5208916612        0.0000336071
 C         -2.5470377172       -0.8598445449        0.0000056776
 C         -1.2601607536       -1.4014425102       -0.0000480646
 Cl        -1.0241880437       -3.0977215136       -0.0000786597
 Cl        -3.9080577952       -1.8964950455        0.0000392905
 Cl        -4.2875052510        1.1977556117        0.0001407543
 Cl        -1.7799095248        3.0606284982       -0.0000146421
 O          0.7411762058        1.6796384087       -0.0001411459
 H          5.2376534164        2.0355350553       -0.0000308872
 H          2.9450279740        2.9948772885       -0.0001467987
 H          3.5420425697       -1.9023934391        0.0000798496
