  19
        -26.29482422
 C         -2.6023370566       -0.9364382669       -0.0000140015
 C         -1.1469322406       -0.5780580142        0.0000212142
 C         -0.1799615075       -1.5710428893        0.0000011954
 C          1.1694447687       -1.2662601673       -0.0000097868
 C          1.5710413450        0.0611265596        0.0000034783
 C          0.6100835909        1.0650153564        0.0000412015
 C         -0.7405155831        0.7608090595        0.0000544518
 C         -1.7544115419        1.8636692753       -0.0000343253
 O          2.8857002319        0.4252237338       -0.0000230957
 H         -3.0995786059       -0.5287730832        0.8798204017
 H         -3.0996699851       -0.5282049479       -0.8795276004
 H         -2.7320723875       -2.0157002678       -0.0003357326
 H         -0.4838007012       -2.6082516532       -0.0000191736
 H          1.9078764852       -2.0574940701       -0.0000363015
 H          0.9434473784        2.0913090640        0.0000611736
 H         -2.3931099614        1.7964984393       -0.8802134653
 H         -2.3949877160        1.7950524635        0.8786488290
 H         -1.2668525793        2.8347347338        0.0012541084
 H          3.4386665990       -0.3650051812       -0.0000414738
