  19
        -26.29482422
 C         -2.6023370566       -0.9364382669       -0.0000140015
 C         -1.1469322406       -0.5780580142        0.0000212142
 C         -0.1799615075       -1.5710428893        0.0000011954
 C          1.1694447687       -1.2662601673       -0.0000097868
 C          1.5710413450        0.0611265596        0.0000034783
 C          0.6100835909        1.0650153564        0.0000412015
 C         -0.7405155831        0.7608090595        0.0000544518
 C         -1.7544115419        1.8636692753       -0.0000343253
 O          2.8857002319        0.4252237338       -0.0000230957
 H         -3.0995786059       -0.5287730832        0.8798204017
 H         -3.0996699851       -0.5282049479       -0.8795276004
 H         -2.7320723875       -2.0157002678       -0.0003357326
 H         -0.4838007012       -2.6082516532       -0.0000191736
 H          1.9078764852       -2.0574940701       -0.0000363015
 H          0.9434473784        2.0913090640        0.0000611736
 H         -2.3931099614        1.7964984393       -0.8802134653
 H         -2.3949877160        1.7950524635        0.8786488290
 H         -1.2668525793        2.8347347338        0.0012541084
 H          3.4386665990       -0.3650051812       -0.0000414738
  19
        -26.29468739
 C         -2.5945988048       -0.9576478401       -0.0000372996
 C         -1.1420871495       -0.5875875036        0.0000105653
 C         -0.1651406117       -1.5738707703        0.0000171700
 C          1.1800140779       -1.2623731942        0.0000148020
 C          1.5716761499        0.0699488841       -0.0000004801
 C          0.6036795904        1.0648162433        0.0000095989
 C         -0.7477235006        0.7524941853        0.0000195201
 C         -1.7692481869        1.8486503541        0.0000155931
 O          2.9046940666        0.3583128361       -0.0000272340
 H         -2.7146889025       -2.0378835344        0.0000856885
 H         -3.0956513769       -0.5541153728        0.8796254933
 H         -3.0955134211       -0.5543326207       -0.8798805846
 H         -0.4631853842       -2.6125162951        0.0000246583
 H          1.9354434488       -2.0313982479        0.0000179872
 H          0.9109485333        2.1038345392        0.0000047954
 H         -2.4085867848        1.7757719351        0.8792567688
 H         -1.2913290924        2.8250222506        0.0002236259
 H         -2.4083066835        1.7760114462       -0.8794516551
 H          3.0282073826        1.3149105661       -0.0000639884
  19
        -26.29305465
 C         -2.6050283629       -0.9722315627       -0.0004318286
 C         -1.1552007915       -0.5808518520        0.0001929775
 C         -0.1810985301       -1.5701414651        0.0002358765
 C          1.1670207567       -1.2659193608        0.0001527928
 C          1.5669813039        0.0628413354       -0.0000210725
 C          0.6027619667        1.0606047019        0.0002925421
 C         -0.7506853728        0.7565397894        0.0005476581
 C         -1.7248138001        1.8994657529       -0.0001523310
 O          2.8808773272        0.4295206541       -0.0003713938
 H         -3.1119499611       -0.5873582693        0.8838941469
 H         -3.1127318861       -0.5815459982       -0.8816983930
 H         -2.7031815517       -2.0549763179       -0.0038168834
 H         -0.4821850419       -2.6081861237        0.0001421449
 H          1.9057825358       -2.0568012043        0.0001224102
 H          0.9283879643        2.0895263889        0.0003892980
 H         -1.5766624650        2.5119989213       -0.8886826293
 H         -2.7550331291        1.5617255693        0.0168856460
 H         -1.5540275642        2.5327555456        0.8693982819
 H          3.4352353329       -0.3597272610       -0.0004700008
