  22
        -23.41498940
 C          3.5186802222       -0.0076358487       -0.2267462415
 C          2.1234466246        0.4253126179        0.2026553610
 C          1.0905916048       -0.6854620225       -0.0429124788
 N         -0.2541252438       -0.4106017216        0.4153958158
 C         -0.9581643353        0.6417162582       -0.2923028836
 C         -2.4228702636        0.6788827491        0.1422077948
 C         -3.1421552134       -0.6192098044       -0.1993748417
 H          4.2389890485        0.7879411511       -0.0495235562
 H          3.8335330487       -0.8874577484        0.3307834641
 H          3.5309508806       -0.2527768592       -1.2865670609
 H          1.8356247484        1.3210870183       -0.3516968361
 H          2.1294834101        0.6770885166        1.2670630806
 H          1.0367950361       -0.9011372732       -1.1142910162
 H          1.4229476450       -1.5961313995        0.4662521495
 H         -0.2460386295       -0.2060282364        1.4105734082
 H         -0.9013618543        0.4118286961       -1.3606402166
 H         -0.5140840362        1.6408688840       -0.1376224242
 H         -2.4685370120        0.8480387330        1.2208113655
 H         -2.9162142944        1.5202499288       -0.3491279210
 H         -4.1606152262       -0.6060737478        0.1817620294
 H         -3.1775627260       -0.7607519999       -1.2770925760
 H         -2.6092760817       -1.4578448845        0.2396485948
