! pbe def2-sv(p) def2/J RI DEFGRID1 loosescf d4 GCP(DFT/SV(P)) printgap
%output
    printlevel normal
end
* xyz 0 1
C 2.1419329416 -0.8189942789 1.5543361762
C 2.4492469167 -0.1048679899 0.2702174637
C 3.6944379381 0.1120744553 -0.1246787211
C 1.272703155 0.3669511795 -0.55053912
H 1.6634588177 0.8253174161 -1.4630020712
C 0.3762499907 -0.8102048192 -0.9600493285
C -1.0407472971 -0.3399726035 -1.2916528467
C -1.6224550491 0.2540781983 -0.0445068828
C -0.8503104673 1.0669951517 0.6968885365
C 0.502274706 1.4631935295 0.2388358461
C -2.9587810711 -0.10318834 0.3757751326
O -3.7163176992 -0.851197637 -0.2182473005
H 2.0784256921 -1.8927329029 1.3793515224
H 2.9297851578 -0.6503792206 2.2838812011
H 1.1933757523 -0.4892049408 1.97077618
H 3.9225906174 0.6118140759 -1.0506171203
H 4.5392932098 -0.2098135767 0.4606157696
H 0.8185990222 -1.3150392914 -1.8189651432
H 0.3073872931 -1.5322267275 -0.146035795
H -1.0101033579 0.4077555102 -2.08743051
H -1.6643613117 -1.1703052523 -1.6260466353
H -1.2180533519 1.4841014402 1.6237167835
H 0.3664347953 2.3221229852 -0.4250475432
H 1.1054688488 1.8099237415 1.0784456247
H -3.284486756 0.3680991968 1.3229868653
*
