  23
        -23.15799566
 C          2.5273778624        0.7998231910        0.1378216900
 C          1.0894566558        0.5351649200        0.5717562648
 C          0.2895567040       -0.2576300165       -0.4690424960
 H          0.5094712721        0.1675532792       -1.4559891320
 C          0.7267537123       -1.7226215617       -0.4900552598
 C         -1.2375622922       -0.1468100247       -0.2683638655
 C         -1.6834166034       -0.4513823385        1.1604449982
 C         -1.7616467030        1.2245471176       -0.6945897482
 H          2.5479949266        1.3348169222       -0.8095636932
 H          3.0395868960        1.4052778937        0.8827585285
 H          3.0815311112       -0.1277224577        0.0197503043
 H          0.6046415144        1.4975280134        0.7434580549
 H          1.0961734180       -0.0095365924        1.5175561522
 H          1.7794012165       -1.8061247874       -0.7469984342
 H          0.5775123426       -2.1872834820        0.4817014998
 H          0.1555326774       -2.2808417014       -1.2289705251
 H         -1.6978318699       -0.8917570610       -0.9290056943
 H         -1.3147436745       -1.4195345824        1.4883282090
 H         -2.7701736971       -0.4695702608        1.2124701115
 H         -1.3254460276        0.3090744693        1.8495601428
 H         -1.3666135373        2.0118830170       -0.0571341943
 H         -2.8470555233        1.2495145555       -0.6251605251
 H         -1.4803270544        1.4420551994       -1.7227456148
