! pbe def2-sv(p) def2/J RI DEFGRID1 loosescf d4 GCP(DFT/SV(P)) printgap
%output
    printlevel normal
end
* xyz 0 1
C 2.3950504074 -0.2840656392 -0.6411434576
O 1.1241568399 -0.8708320525 -0.3083313347
S -0.0001458899 0.175330432 -0.0004426314
O -0.3206415198 0.9390695543 -1.1719853459
O 0.3205084709 0.9368821337 1.1724777775
O -1.1246564928 -0.871149829 0.3055547436
C -2.3941360222 -0.2847249666 0.6442392608
H 2.2803060132 0.328457085 -1.5351947936
H 3.0665309487 -1.1209009676 -0.8155981317
H 2.7315359324 0.3303595307 0.1936941812
H -2.7339099806 0.3310874055 -0.1882177602
H -2.2756772061 0.3263610484 1.5387975894
H -3.064997446 -1.1217840906 0.8199673231
*
