! pbe def2-sv(p) def2/J RI DEFGRID1 loosescf d4 GCP(DFT/SV(P)) printgap
%output
    printlevel normal
end
* xyz 0 1
C 2.7790521988 -0.4096551252 1.7947057112
C 3.2089821659 -1.0716718894 0.4850401719
C 3.3034471209 -0.0791650535 -0.6480432502
O 4.3684734565 0.144114066 -1.2145098926
N 2.214955581 0.6437722084 -1.0203311784
C 0.8741278226 0.6262280913 -0.6320903207
C 0.1895638729 1.8427618978 -0.5814190331
C -1.1435017118 1.8896291285 -0.2281360838
C -1.8249680843 0.7201631417 0.0747797536
C -1.1586197215 -0.4965519466 -0.00051347
C 0.1775017419 -0.5484511856 -0.3588085603
Cl -1.9999103016 -1.9738058524 0.3394563094
Cl -3.4979214746 0.7783236143 0.5270806945
H 2.8146620236 -1.1409841347 2.5971220283
H 1.7681898197 -0.017763959 1.7288780223
H 3.4549905381 0.405048736 2.0425080597
H 2.5298992748 -1.8822042072 0.2284314561
H 4.2078868521 -1.4965329341 0.6003829156
H 2.4562348563 1.3967630945 -1.6576664087
H 0.7085998948 2.7585177487 -0.8133490069
H -1.6652268012 2.8308371469 -0.1820389185
H 0.6510172362 -1.510375467 -0.4402635758
*
