! pbe def2-sv(p) def2/J RI DEFGRID1 loosescf d4 GCP(DFT/SV(P)) printgap
%output
    printlevel normal
end
* xyz 0 1
C 1.8290459625 -0.9859249641 0.0021238447
C 1.7922074172 0.5068920722 -0.3033393493
C 0.5637965339 1.2232354813 0.2603777303
C -0.7490186611 0.860770199 -0.4231671097
S -1.5200327826 -0.6933654385 0.1710729432
H 2.7577741381 -1.4194926487 -0.3613358308
H 1.0030476998 -1.5056433175 -0.4759500774
H 1.7658453307 -1.1580882258 1.0743170953
H 1.8284001544 0.6570714822 -1.3850187667
H 2.6818084754 0.9751966895 0.1241511183
H 0.7073584958 2.2989813556 0.1311036227
H 0.4874370102 1.0255201334 1.3316800011
H -1.4930184651 1.6433355825 -0.2789942418
H -0.6055682387 0.704120623 -1.4919537266
H -1.7216726601 -0.2885762373 1.4189330623
*
