  19
        -26.29335965
 C         -2.5015743577        0.7433710904       -0.0000460762
 C         -1.2189731172       -0.0285768259       -0.0000021650
 C         -1.1918880154       -1.4127498660        0.0000070832
 C          0.0095353535       -2.0996858241        0.0000219049
 C          1.2007887238       -1.3993754547       -0.0000009723
 C          1.2126163213       -0.0118110093       -0.0000136669
 C         -0.0066927273        0.6677342417        0.0000179266
 O         -0.0699907616        2.0327374601        0.0000456371
 C          2.5103552454        0.7500688442       -0.0000414273
 H         -2.5497574647        1.3874035006       -0.8768847539
 H         -3.3574452112        0.0740212461       -0.0001053985
 H         -2.5498459613        1.3873586819        0.8768197194
 H         -2.1248147655       -1.9573327031        0.0000170671
 H          0.0170221544       -3.1791623704        0.0000736308
 H          2.1401104833       -1.9333433943        0.0000247030
 H          0.8241144125        2.3926282029        0.0001675985
 H          2.5970968408        1.3817036672       -0.8865906028
 H          2.5974880757        1.3810894855        0.8869056037
 H          3.3482332728        0.0582115160       -0.0004680657
