  19
  -26.2933596500000       4.088359485225751E-002 !hor
 C         -2.5015743577        0.7433710904       -0.0000460762
 C         -1.2189731172       -0.0285768259       -0.0000021650
 C         -1.1918880154       -1.4127498660        0.0000070832
 C          0.0095353535       -2.0996858241        0.0000219049
 C          1.2007887238       -1.3993754547       -0.0000009723
 C          1.2126163213       -0.0118110093       -0.0000136669
 C         -0.0066927273        0.6677342417        0.0000179266
 O         -0.0699907616        2.0327374601        0.0000456371
 C          2.5103552454        0.7500688442       -0.0000414273
 H         -2.5497574647        1.3874035006       -0.8768847539
 H         -3.3574452112        0.0740212461       -0.0001053985
 H         -2.5498459613        1.3873586819        0.8768197194
 H         -2.1248147655       -1.9573327031        0.0000170671
 H          0.0170221544       -3.1791623704        0.0000736308
 H          2.1401104833       -1.9333433943        0.0000247030
 H          0.8241144125        2.3926282029        0.0001675985
 H          2.5970968408        1.3817036672       -0.8865906028
 H          2.5974880757        1.3810894855        0.8869056037
 H          3.3482332728        0.0582115160       -0.0004680657
  19
  -26.2933596200000       4.088229698862960E-002 !gc
 C         -2.5207966113        0.7142251248       -0.0002453355
 C         -1.2123128930       -0.0290793868       -0.0000157916
 C         -1.1807550231       -1.4163441234        0.0000174141
 C          0.0203342125       -2.0996112830        0.0000974163
 C          1.2118708151       -1.3956279293        0.0000110012
 C          1.2192705920       -0.0112203974        0.0000043863
 C         -0.0028134353        0.6677595838        0.0001528133
 O          0.0410911501        2.0335140862        0.0002425721
 C          2.4907178782        0.7789623382       -0.0002477889
 H         -2.6160219802        1.3451988250       -0.8863904313
 H         -3.3487658618        0.0105334738       -0.0016222004
 H         -2.6173870064        1.3433090797        0.8870955348
 H         -2.1123948832       -1.9636012634       -0.0001437789
 H          0.0282590822       -3.1790861508        0.0001103360
 H          2.1524367332       -1.9269107473        0.0000142536
 H         -0.8580084954        2.3807455335        0.0006529480
 H          2.5292611081        1.4241125924       -0.8768591466
 H          2.5302310275        1.4231089123        0.8770300653
 H          3.3560445650        0.1217820286       -0.0010463333
  19
  -26.2933596100000       4.088186437652493E-002 !gc
 C         -2.5208367078        0.7141645099       -0.0003096581
 C         -1.2123162763       -0.0290690421        0.0000064765
 C         -1.1807584899       -1.4162678582        0.0000190919
 C          0.0203899044       -2.0995816942        0.0000573196
 C          1.2118674820       -1.3956382064        0.0001042036
 C          1.2192570519       -0.0111743830        0.0001040591
 C         -0.0027772778        0.6677951772        0.0001715849
 O          0.0410061335        2.0335438415        0.0003340626
 C          2.4907941768        0.7788362717       -0.0003904512
 H         -3.3487259555        0.0103925332       -0.0002536303
 H         -2.6169165035        1.3444017130        0.8862684363
 H         -2.6166571474        1.3439953602       -0.8872115524
 H         -2.1123524257       -1.9635976383       -0.0002128448
 H          0.0282785159       -3.1790571897       -0.0000593678
 H          2.1524610280       -1.9268784188        0.0000215116
 H         -0.8581033345        2.3807435269        0.0007001801
 H          2.5312731970        1.4206491819       -0.8792380728
 H          2.5284045614        1.4262564806        0.8744688708
 H          3.3560986453        0.1218042936        0.0030423096
  19
  -26.2933595900000       4.088099916620281E-002 !hor
 C         -2.5015598477        0.7433845286       -0.0002413676
 C         -1.2189664224       -0.0285855387        0.0000832250
 C         -1.1918889328       -1.4127528568        0.0000330492
 C          0.0095346180       -2.0996943484        0.0000444359
 C          1.2007812843       -1.3993867813        0.0000078932
 C          1.2126124712       -0.0118145786        0.0001111871
 C         -0.0066836564        0.6677282821        0.0001862216
 O         -0.0699934291        2.0327372470        0.0001784389
 C          2.5103414280        0.7500894252       -0.0002431530
 H         -3.3574299735        0.0740508141        0.0031732234
 H         -2.5483688514        1.3902015832        0.8746023855
 H         -2.5512274804        1.3846009160       -0.8790848754
 H         -2.1248220282       -1.9573244584       -0.0000081770
 H          0.0170234371       -3.1791727096       -0.0000150001
 H          2.1401027473       -1.9333505686       -0.0001134080
 H          0.8241126888        2.3926314285        0.0000039606
 H          2.5964550835        1.3835637033        0.8850518744
 H          3.3481909276        0.0582187286        0.0022531447
 H          2.5981657349        1.3792459605       -0.8884751025
  19
  -26.2933595800000       4.088056656783157E-002 !mtd3
 C         -2.5015800754        0.7433650969       -0.0001391562
 C         -1.2189690292       -0.0285737383       -0.0001337626
 C         -1.1918868149       -1.4127500920       -0.0000584988
 C          0.0095346407       -2.0996879124        0.0001479130
 C          1.2007849384       -1.3993732241        0.0000779950
 C          1.2126190199       -0.0118065975       -0.0000863584
 C         -0.0066917677        0.6677400108        0.0000378197
 O         -0.0699934887        2.0327419489        0.0002813253
 C          2.5103579814        0.7500603068       -0.0002255204
 H         -2.5474312711        1.3913139434       -0.8741566799
 H         -3.3574208469        0.0740155201       -0.0053231623
 H         -2.5522167683        1.3833903615        0.8794968341
 H         -2.1248213656       -1.9573161299       -0.0001945665
 H          0.0170308512       -3.1791616094        0.0002218662
 H          2.1401023556       -1.9333439303        0.0000191491
 H          0.8241101568        2.3926437823        0.0007743144
 H          2.5985772388        1.3792731797        0.8879275722
 H          3.3482486305        0.0581920392       -0.0031208646
 H          2.5960486673        1.3835154634       -0.8855869544
  19
  -26.2933595800000       4.088056656783157E-002 !mtd8
 C         -2.5016367059        0.7432781954        0.0004022000
 C         -1.2189649146       -0.0285181467       -0.0001111346
 C         -1.1918810222       -1.4127453966       -0.0000550369
 C          0.0095120743       -2.0996745750       -0.0001004652
 C          1.2007982491       -1.3993466753       -0.0000519145
 C          1.2126241292       -0.0118221089       -0.0000188742
 C         -0.0067149566        0.6677511472       -0.0001620127
 O         -0.0699247584        2.0327710345       -0.0003991964
 C          2.5103601190        0.7500398446        0.0003377043
 H         -2.5517064000        1.3838161110        0.8797727307
 H         -2.5481728910        1.3908028379       -0.8739505409
 H         -3.3574621567        0.0738260651       -0.0036977953
 H         -2.1248315943       -1.9572739557        0.0004247220
 H          0.0170474733       -3.1791484417       -0.0001319242
 H          2.1400531306       -1.9334332517       -0.0003706174
 H          0.8242078991        2.3926171067       -0.0002990092
 H          2.5971772545        1.3824011798       -0.8856551222
 H          2.5974356383        1.3803943124        0.8878494528
 H          3.3482453411        0.0581967764       -0.0004706577
  19
  -26.2933595700000       4.088013397403803E-002 !mtd8
 C         -2.5207853170        0.7142354949        0.0000487789
 C         -1.2123243402       -0.0290760668        0.0000150247
 C         -1.1807401056       -1.4163311496        0.0000871123
 C          0.0203639310       -2.0996055814        0.0000200055
 C          1.2118819441       -1.3956303724       -0.0001024448
 C          1.2192544955       -0.0112115363       -0.0001466510
 C         -0.0028146060        0.6677665656       -0.0000709574
 O          0.0410401221        2.0335363353       -0.0000700527
 C          2.4907415026        0.7789078062        0.0002116154
 H         -2.6168939897        1.3440332317       -0.8868413829
 H         -3.3487173155        0.0105121252        0.0003626862
 H         -2.6165376735        1.3444846930        0.8866461505
 H         -2.1123634335       -1.9636210016        0.0001493438
 H          0.0282515480       -3.1790795917        0.0000469698
 H          2.1524728716       -1.9268699937       -0.0001581513
 H         -0.8581005800        2.3806535039       -0.0014426731
 H          3.3559962828        0.1218362071       -0.0077694712
 H          2.5261975332        1.4297497215       -0.8721167403
 H          2.5334205876        1.4172446782        0.8814906759
  19
  -26.2933595600000       4.087970138482215E-002 !gc
 C         -2.5207825609        0.7142326611       -0.0000300301
 C         -1.2123300639       -0.0290562680       -0.0000289302
 C         -1.1807339413       -1.4163142255       -0.0001464057
 C          0.0203668725       -2.0996070353        0.0000134826
 C          1.2119014693       -1.3956633528        0.0001672393
 C          1.2192471234       -0.0112304511        0.0001814558
 C         -0.0027737444        0.6677660470        0.0000686117
 O          0.0410046349        2.0335480243        0.0001101739
 C          2.4907316054        0.7789116257       -0.0002813540
 H         -3.3487379960        0.0105193935        0.0001016154
 H         -2.6167264735        1.3444219194        0.8865930465
 H         -2.6167126937        1.3441153684       -0.8868772244
 H         -2.1123267139       -1.9636599798       -0.0000303280
 H          0.0281629622       -3.1790902560        0.0001094523
 H          2.1525129561       -1.9268491910        0.0001907211
 H         -0.8581261548        2.3806324690        0.0007820566
 H          3.3560318198        0.1218364883        0.0081849347
 H          2.5336206933        1.4168321516       -0.8818860173
 H          2.5260037799        1.4301922216        0.8717493613
  19
  -26.2933595500000       4.087926880033758E-002 !mtd2
 C         -2.5015620445        0.7433126437       -0.0000822832
 C         -1.2189700121       -0.0285733945        0.0001588386
 C         -1.1918985587       -1.4127571733        0.0001286640
 C          0.0095192506       -2.0996856745       -0.0000833472
 C          1.2007668690       -1.3993551124       -0.0000933463
 C          1.2126087788       -0.0117953005        0.0000105194
 C         -0.0067156929        0.6677581819       -0.0000115546
 O         -0.0699736077        2.0327839518       -0.0000670664
 C          2.5103773148        0.7500415866        0.0000879298
 H         -2.5524399700        1.3825870795       -0.8802222679
 H         -3.3573756236        0.0739688166        0.0058705614
 H         -2.5471517622        1.3919602557        0.8733973271
 H         -2.1248679045       -1.9572659027       -0.0000838768
 H          0.0171022066       -3.1791574635       -0.0004938575
 H          2.1400973614       -1.9333051014       -0.0003788702
 H          0.8242014698        2.3924350586        0.0013507654
 H          3.3482451235        0.0582153578        0.0017749740
 H          2.5980223022        1.3800863711       -0.8875181554
 H          2.5965911388        1.3826661749        0.8859925625
  19
  -26.2933595400000       4.087883622027687E-002 !gc
 C         -2.5015631365        0.7433527134       -0.0003244210
 C         -1.2189640752       -0.0285829671       -0.0001663367
 C         -1.1919186390       -1.4127269583        0.0000071646
 C          0.0095385321       -2.0996714108        0.0002702360
 C          1.2007733719       -1.3993932676        0.0000360903
 C          1.2126228471       -0.0117873807       -0.0002052362
 C         -0.0066484621        0.6677290557        0.0000528599
 O         -0.0700260909        2.0327337586        0.0005186761
 C          2.5103687349        0.7500690711       -0.0003110594
 H         -2.5522942344        1.3833344627        0.8793416015
 H         -2.5472863031        1.3914259291       -0.8743309647
 H         -3.3574140089        0.0740158048       -0.0057490289
 H         -2.1248005207       -1.9573828310       -0.0003088525
 H          0.0170038502       -3.1791558882        0.0005536803
 H          2.1400812506       -1.9333856465        0.0001652777
 H          0.8240479750        2.3927145205        0.0009296523
 H          3.3481907225        0.0581640066       -0.0038075421
 H          2.5957834181        1.3838436130       -0.8854526548
 H          2.5989530159        1.3788998418        0.8880605276
  19
  -26.2933595400000       4.087883622027687E-002 !mtd4
 C         -2.5016297102        0.7433045709       -0.0001765416
 C         -1.2189669486       -0.0285501331       -0.0001291448
 C         -1.1918827276       -1.4127363441       -0.0000483593
 C          0.0095249363       -2.0996693580        0.0001000089
 C          1.2007942596       -1.3993589726        0.0000336757
 C          1.2126225182       -0.0118072941        0.0000202844
 C         -0.0066982873        0.6677577786        0.0001481840
 O         -0.0699493472        2.0327743087        0.0002106022
 C          2.5103598436        0.7500327218       -0.0002874511
 H         -2.5533102324        1.3816019032        0.8806031924
 H         -2.5465301547        1.3928215234       -0.8729582472
 H         -3.3575337880        0.0738760798       -0.0074273698
 H         -2.1248385566       -1.9572855969       -0.0001490497
 H          0.0170261806       -3.1791453319        0.0002091755
 H          2.1401069481       -1.9333432742        0.0000305695
 H          0.8241862471        2.3925608511        0.0014601114
 H          2.5981270608        1.3803408966        0.8870871270
 H          3.3482424841        0.0582111570       -0.0017993270
 H          2.5965871255        1.3823812282       -0.8863553692
  19
  -26.2933595300000       4.087840364479370E-002 !gc
 C         -2.5207921199        0.7142333221        0.0001215394
 C         -1.2123265781       -0.0290763194        0.0000910610
 C         -1.1807402804       -1.4163279372        0.0000853018
 C          0.0203677884       -2.0995984309       -0.0000672777
 C          1.2118829016       -1.3956229530       -0.0001492151
 C          1.2192532613       -0.0112083255       -0.0001071044
 C         -0.0028168849        0.6677683379       -0.0000625948
 O          0.0410324102        2.0335390449       -0.0002602549
 C          2.4907495737        0.7788916419        0.0003185585
 H         -2.6154421099        1.3466720991        0.8852924383
 H         -2.6179988598        1.3418459139       -0.8882110170
 H         -3.3487290189        0.0105103515        0.0032553944
 H         -2.1123607280       -1.9636219993        0.0001797100
 H          0.0282607250       -3.1790734986       -0.0001929109
 H          2.1524737008       -1.9268637886       -0.0003250598
 H         -0.8581117154        2.3806550397       -0.0007821196
 H          3.3561208737        0.1217539276       -0.0066607605
 H          2.5266819815        1.4292305228       -0.8724083450
 H          2.5329515270        1.4177422336        0.8812398750
  19
  -26.2933595300000       4.087840364479370E-002 !gc
 C         -2.5208317213        0.7141939428       -0.0003345855
 C         -1.2123301443       -0.0290706600       -0.0001367200
 C         -1.1807580494       -1.4162762657        0.0000988340
 C          0.0203894188       -2.0995753508        0.0001262837
 C          1.2118807235       -1.3956585368        0.0000042610
 C          1.2192570946       -0.0111947215       -0.0000591783
 C         -0.0027938131        0.6677752567        0.0001264424
 O          0.0410477012        2.0335233675        0.0003944554
 C          2.4907503680        0.7788898281       -0.0003185211
 H         -2.6150079039        1.3473552016       -0.8850321320
 H         -3.3486842778        0.0103977602       -0.0045201017
 H         -2.6186176719        1.3410911947        0.8884324082
 H         -2.1123268340       -1.9636431955        0.0001676840
 H          0.0282667193       -3.1790601925        0.0002883471
 H          2.1524523030       -1.9269340146       -0.0001891879
 H         -0.8580396423        2.3807833568        0.0012262829
 H          2.5318430733        1.4204308242        0.8787161798
 H          3.3560597526        0.1218469388       -0.0044580711
 H          2.5278224012        1.4265439146       -0.8750157916
  19
  -26.2933595200000       4.087797107388798E-002 !md4
 C         -2.5207863361        0.7142298800        0.0004679940
 C         -1.2123126919       -0.0290710908       -0.0001929100
 C         -1.1807279677       -1.4163399529       -0.0000980293
 C          0.0203608813       -2.0996099927       -0.0000234285
 C          1.2118713382       -1.3956016018        0.0000252696
 C          1.2192623256       -0.0112081881       -0.0001282598
 C         -0.0028258640        0.6677773472       -0.0003208617
 O          0.0410298704        2.0335371636       -0.0002788326
 C          2.4907520873        0.7788783653        0.0003646328
 H         -3.3487153186        0.0105093332       -0.0030903291
 H         -2.6178583431        1.3411613428        0.8892816687
 H         -2.6156357995        1.3473217458       -0.8841841722
 H         -2.1123864431       -1.9635627803        0.0002355184
 H          0.0283010977       -3.1790744215        0.0001940518
 H          2.1524571840       -1.9268632007        0.0000118066
 H         -0.8581057522        2.3807234156       -0.0007973443
 H          2.5303005582        1.4221163480        0.8781740505
 H          3.3560081722        0.1217892301       -0.0010793776
 H          2.5293293432        1.4248141065       -0.8754447224
  19
  -26.2933594800000       4.087624083619250E-002 !mtd6
 C         -2.5015449282        0.7434031819        0.0006484734
 C         -1.2189855202       -0.0285940086       -0.0000822164
 C         -1.1918966039       -1.4127736417       -0.0000664212
 C          0.0095380548       -2.0996801278       -0.0001992960
 C          1.2007917051       -1.3993615805        0.0000063626
 C          1.2126211033       -0.0118030862        0.0000406623
 C         -0.0067149175        0.6677079971       -0.0002437729
 O         -0.0700061183        2.0327552457       -0.0006096395
 C          2.5103573374        0.7500626000        0.0005289563
 H         -3.3573449454        0.0741086544       -0.0090253993
 H         -2.5538865711        1.3796411412        0.8829958701
 H         -2.5457127514        1.3951649283       -0.8706776425
 H         -2.1248189178       -1.9573641816       -0.0002448284
 H          0.0170574994       -3.1791580637       -0.0004682112
 H          2.1400919675       -1.9333687254        0.0001598173
 H          0.8242109216        2.3924616836       -0.0027071540
 H          3.3482185550        0.0582019865        0.0022175621
 H          2.5983318492        1.3804527238       -0.8868068449
 H          2.5963122509        1.3823205480        0.8866938760
  19
  -26.2933594300000       4.087407814202192E-002 !gc
 C         -2.5207847460        0.7142413079       -0.0003453244
 C         -1.2123380627       -0.0290608348       -0.0000889206
 C         -1.1807296682       -1.4163140929        0.0001375828
 C          0.0203713263       -2.0996037094        0.0002173824
 C          1.2119045411       -1.3956589804       -0.0001385994
 C          1.2192473210       -0.0112310323       -0.0002578712
 C         -0.0027799643        0.6677656100        0.0000559611
 O          0.0410025941        2.0335465675        0.0003749470
 C          2.4907374963        0.7789062477       -0.0001242074
 H         -2.6182520287        1.3417913930        0.8879864319
 H         -2.6152092341        1.3467416588       -0.8854807576
 H         -3.3487270424        0.0105113781       -0.0037634681
 H         -2.1123195906       -1.9636656920        0.0001719049
 H          0.0281619358       -3.1790831775        0.0004025060
 H          2.1525189758       -1.9268418641       -0.0003468150
 H         -0.8581332687        2.3806279266        0.0008636593
 H          2.5353617576        1.4144444628        0.8831265155
 H          3.3560152551        0.1218518700       -0.0119728765
 H          2.5243001404        1.4325300375       -0.8704562753
  19
  -26.2933594300000       4.087407814202192E-002 !gc
 C         -2.5015692653        0.7433803374       -0.0005085270
 C         -1.2189819970       -0.0285773155        0.0002581453
 C         -1.1919031090       -1.4127505227        0.0003362310
 C          0.0095289229       -2.0996690201        0.0000569708
 C          1.2008021940       -1.3993767252       -0.0001883156
 C          1.2126364720       -0.0118144983       -0.0000525415
 C         -0.0066840533        0.6677123454        0.0001017290
 O         -0.0700079845        2.0327221800        0.0003391790
 C          2.5103625441        0.7500779309       -0.0001035396
 H         -3.3574328875        0.0741209563        0.0118043596
 H         -2.5444545982        1.3974137453        0.8691376573
 H         -2.5551517719        1.3773762649       -0.8844651668
 H         -2.1248122391       -1.9573674078        0.0005082475
 H          0.0170572463       -3.1791485212        0.0000530241
 H          2.1400874337       -1.9334099237       -0.0003764866
 H          0.8240472801        2.3926669662       -0.0005202627
 H          2.5966138710        1.3826418621       -0.8860547584
 H          2.5979576726        1.3801922520        0.8874487608
 H          3.3482738604        0.0582467794       -0.0017296301
  19
  -26.2933590500000       4.085764540550011E-002 !mtd1
 C         -2.5208082133        0.7142396133        0.0006390509
 C         -1.2123331045       -0.0290620819       -0.0003710276
 C         -1.1807317651       -1.4163037328       -0.0001814584
 C          0.0203858790       -2.0995972480       -0.0000701180
 C          1.2118987310       -1.3956532426        0.0002342604
 C          1.2192615964       -0.0112233977        0.0000347213
 C         -0.0027968188        0.6677490377       -0.0004752421
 O          0.0410298006        2.0335535600       -0.0002064762
 C          2.4907394432        0.7789063189        0.0002320298
 H         -2.6191851907        1.3379006230        0.8916047562
 H         -2.6143984999        1.3505543242       -0.8818538940
 H         -3.3487220030        0.0105120652       -0.0067078557
 H         -2.1123319809       -1.9636355948       -0.0000638469
 H          0.0281829951       -3.1790750409        0.0000163775
 H          2.1524936890       -1.9268779502        0.0006120712
 H         -0.8581757911        2.3804773531       -0.0008700480
 H          2.5360551460        1.4138252374       -0.8834129528
 H          2.5234754166        1.4330990112        0.8701414384
 H          3.3560401516        0.1218888514        0.0133084703
  19
  -26.2928616200000       2.413627997845291E-002 !mtd4
 C         -2.5227630795        0.7192137893        0.0000966927
 C         -1.2176944124       -0.0196831318       -0.0014444429
 C         -1.1907471851       -1.4063127937       -0.0011416814
 C          0.0064173631       -2.0967484947        0.0009405857
 C          1.1993919094       -1.3974296318        0.0009660804
 C          1.2119920772       -0.0112421975       -0.0000368199
 C         -0.0062327372        0.6749744185        0.0003888322
 O         -0.0490098783        2.0421463403        0.0012518873
 C          2.5123720940        0.7465690785       -0.0015631471
 H         -3.1439817888        0.3916698401       -0.8320402620
 H         -3.0659487474        0.5218942244        0.9236662210
 H         -2.3514825913        1.7877414919       -0.0834519210
 H         -2.1270502839       -1.9453213386       -0.0028310257
 H          0.0119147323       -3.1762437563        0.0015034811
 H          2.1380439761       -1.9325490412        0.0014837468
 H          0.8511790463        2.3857416644       -0.0005175792
 H          3.3476238421        0.0515451970       -0.0086209832
 H          2.5984200012        1.3815604499       -0.8858422879
 H          2.6058280928        1.3728229123        0.8881558109
  19
  -26.2928591800000       2.407404059974488E-002 !gc
 C         -2.5227863006        0.7106661067       -0.0006245051
 C         -1.2117786236       -0.0284768138        0.0000065859
 C         -1.1792638676       -1.4143930838        0.0006602856
 C          0.0235047381       -2.0966045668        0.0004574230
 C          1.2107619092       -1.3891780370       -0.0007994677
 C          1.2178589796       -0.0023665603       -0.0012032952
 C         -0.0033803635        0.6749785069       -0.0000261201
 O          0.0197924053        2.0426181326        0.0003792128
 C          2.5122552698        0.7550985853        0.0006640385
 H         -3.3482209095        0.0038938955       -0.0012503001
 H         -2.6219089077        1.3398955150        0.8863454193
 H         -2.6209850745        1.3401269842       -0.8876027602
 H         -2.1101367248       -1.9629668550        0.0010219057
 H          0.0331420811       -3.1760749513        0.0008324928
 H          2.1546692672       -1.9146462914       -0.0017423124
 H         -0.8851233249        2.3736186739       -0.0022587014
 H          3.1320249693        0.4470427899       -0.8400499375
 H          2.3252667975        1.8219995256       -0.0686589547
 H          3.0649483857        0.5539177751        0.9176522644
  19
  -26.2928583100000       2.405188752642101E-002 !mtd11
 C         -2.5228126161        0.7106464445       -0.0004146077
 C         -1.2117481630       -0.0284622622        0.0001651928
 C         -1.1792849456       -1.4143952578        0.0005124552
 C          0.0235021728       -2.0965961092        0.0003261562
 C          1.2107436793       -1.3891516097       -0.0007578375
 C          1.2178841601       -0.0023073965       -0.0010064878
 C         -0.0034173329        0.6749331423        0.0001319904
 O          0.0197708145        2.0426827354        0.0000023742
 C          2.5123374890        0.7550588248        0.0007549670
 H         -3.3480723946        0.0037493993        0.0008619624
 H         -2.6213265678        1.3413966556        0.8856754682
 H         -2.6219264512        1.3385868005       -0.8884556530
 H         -2.1101878885       -1.9628726539        0.0012109736
 H          0.0333363206       -3.1760637446        0.0009942470
 H          2.1545594542       -1.9147973479       -0.0015374160
 H         -0.8852962863        2.3731985228       -0.0042840207
 H          2.3252934405        1.8222475789       -0.0635443182
 H          3.0674124178        0.5497944489        0.9154172915
 H          3.1298375390        0.4505223642       -0.8429421252
  19
  -26.2928575900000       2.403356936565199E-002 !gc
 C         -2.5229922041        0.7188896485       -0.0008598900
 C         -1.2177003606       -0.0195835071        0.0010152123
 C         -1.1907924897       -1.4061904838        0.0006948763
 C          0.0063980543       -2.0966814635       -0.0002575998
 C          1.1993353921       -1.3974233442       -0.0005227578
 C          1.2120475580       -0.0111849940       -0.0000557920
 C         -0.0061467941        0.6750253922        0.0001094487
 O         -0.0488859020        2.0422695564        0.0000377774
 C          2.5124627886        0.7464803670        0.0002389066
 H         -3.1337976472        0.4091656875        0.8458056063
 H         -2.3514042277        1.7889029356        0.0584860954
 H         -3.0773523208        0.5015102383       -0.9131162771
 H         -2.1270004374       -1.9452483135        0.0013304531
 H          0.0119305783       -3.1761802215       -0.0005769666
 H          2.1379508053       -1.9326248264       -0.0008421421
 H          0.8513755295        2.3858906962        0.0028581819
 H          2.6026567847        1.3761362552        0.8879349218
 H          3.3476976680        0.0513851906       -0.0006808022
 H          2.6020002520        1.3780803457       -0.8861174669
  19
  -26.2928575600000       2.403280641181583E-002 !mtd7
 C         -2.5228627087        0.7105987652        0.0023302314
 C         -1.2117618878       -0.0284897970       -0.0003387933
 C         -1.1793043700       -1.4143895157       -0.0006914684
 C          0.0235412824       -2.0965708804       -0.0010116294
 C          1.2107355252       -1.3891394509        0.0005503286
 C          1.2178270887       -0.0022582368        0.0009792484
 C         -0.0034751119        0.6749866486       -0.0008786171
 O          0.0198956780        2.0426544143       -0.0020922536
 C          2.5123164650        0.7550160531        0.0010325118
 H         -2.6210838604        1.3365013648        0.8917513895
 H         -2.6222411842        1.3431845195       -0.8821385870
 H         -3.3481226859        0.0037066505        0.0003115076
 H         -2.1101178924       -1.9629994793       -0.0006262810
 H          0.0331359475       -3.1760511721       -0.0013618151
 H          2.1546453041       -1.9146024403        0.0021765629
 H         -0.8849384857        2.3738598333        0.0011746194
 H          2.3251963010        1.8222947818        0.0630265853
 H          3.1274133648        0.4519299938        0.8470413717
 H          3.0700029782        0.5480561359       -0.9116407305
  19
  -26.2928568500000       2.401475690492160E-002 !gc
 C         -2.5229848442        0.7188425861        0.0009929414
 C         -1.2176172629       -0.0195251359       -0.0008364203
 C         -1.1907545034       -1.4061540962       -0.0006028735
 C          0.0063822901       -2.0967239888        0.0001209853
 C          1.1993257132       -1.3974336112        0.0003991645
 C          1.2120249063       -0.0111937550        0.0000710733
 C         -0.0061368933        0.6750593592       -0.0002040255
 O         -0.0489397207        2.0422858832       -0.0003403203
 C          2.5124664161        0.7464489535        0.0000567389
 H         -3.0795787540        0.4974230512        0.9108705938
 H         -2.3514423027        1.7891886940       -0.0534745712
 H         -3.1316103379        0.4126971217       -0.8485397563
 H         -2.1270273121       -1.9451199191       -0.0012860741
 H          0.0118362868       -3.1762180830        0.0001979737
 H          2.1379698999       -1.9325750890        0.0008382140
 H          0.8512914346        2.3859441440       -0.0033113811
 H          3.3476971991        0.0513444304        0.0027538962
 H          2.6034984865        1.3750387356       -0.8883075303
 H          2.6011579797        1.3791704306        0.8856896681
  19
  -26.2928557100000       2.398580435907215E-002 !gc
 C         -2.5229304297        0.7190200915        0.0003978260
 C         -1.2176902447       -0.0196302390       -0.0007933194
 C         -1.1907761389       -1.4062475617       -0.0005338216
 C          0.0064020455       -2.0967142863        0.0003357483
 C          1.1993554284       -1.3974145784        0.0004231577
 C          1.2120281066       -0.0111986480       -0.0000094602
 C         -0.0062061763        0.6749921437       -0.0000120915
 O         -0.0488781001        2.0422212868        0.0002834747
 C          2.5124233304        0.7465351008       -0.0004380587
 H         -2.3507718374        1.7896588269       -0.0446113683
 H         -3.1270562010        0.4200844512       -0.8549688622
 H         -3.0845664449        0.4901382794        0.9052968588
 H         -2.1270526951       -1.9452099178       -0.0011598513
 H          0.0119818133       -3.1762100336        0.0006379633
 H          2.1379972368       -1.9325749353        0.0007000907
 H          0.8513648190        2.3858300705       -0.0011337198
 H          2.6017528840        1.3773755173       -0.8873740449
 H          2.6026181231        1.3770361177        0.8866385211
 H          3.3477372191        0.0515318194       -0.0010176140
  19
  -26.2928554600000       2.397945978464909E-002 !gc
 C         -2.5229601090        0.7189420871        0.0001468291
 C         -1.2176487166       -0.0195766161       -0.0007433858
 C         -1.1907551108       -1.4062222296       -0.0005073800
 C          0.0063869426       -2.0967299083        0.0003789383
 C          1.1993335608       -1.3974206426        0.0004421032
 C          1.2120399890       -0.0112125302        0.0000065093
 C         -0.0061708168        0.6750354553        0.0000997293
 O         -0.0489246645        2.0422666811        0.0004977847
 C          2.5124450968        0.7464889525       -0.0006620584
 H         -2.3508557996        1.7897359749       -0.0429022664
 H         -3.1259367745        0.4214502331       -0.8564948584
 H         -3.0856267935        0.4885049283        0.9039782370
 H         -2.1270596077       -1.9451210167       -0.0010394854
 H          0.0119270823       -3.1762238784        0.0006493156
 H          2.1379743190       -1.9325844399        0.0006259830
 H          0.8513255388        2.3859058326       -0.0002165367
 H          2.6030074580        1.3765823770        0.8866798458
 H          3.3477372961        0.0514452090       -0.0018510937
 H          2.6014777811        1.3776907249       -0.8873361258
  19
  -26.2928553400000       2.397641498511368E-002 !gc
 C         -2.5229905211        0.7188716514        0.0003508490
 C         -1.2176110833       -0.0195360051       -0.0007313808
 C         -1.1907443328       -1.4062036286       -0.0004905623
 C          0.0063629484       -2.0967430712        0.0003074826
 C          1.1993225082       -1.3974271190        0.0003950163
 C          1.2120478081       -0.0112363667       -0.0000037560
 C         -0.0061561046        0.6750619805       -0.0000026943
 O         -0.0489121131        2.0422964549        0.0002737968
 C          2.5124418742        0.7464871825       -0.0004237413
 H         -2.3509825741        1.7897443204       -0.0414052751
 H         -3.1254863741        0.4223053233       -0.8569416719
 H         -3.0860800017        0.4873414949        0.9036301242
 H         -2.1271012200       -1.9450121043       -0.0010641530
 H          0.0119014199       -3.1762336042        0.0005617231
 H          2.1379553477       -1.9326055277        0.0006503945
 H          0.8513441846        2.3859087851       -0.0009913784
 H          3.3477929321        0.0515162275       -0.0011624735
 H          2.6017320785        1.3774803129       -0.8872546931
 H          2.6026685204        1.3768249302        0.8867668115
  19
  -26.2928548100000       2.396297174441384E-002 !gc
 C         -2.5228202609        0.7106210544       -0.0001259725
 C         -1.2117744999       -0.0284700645       -0.0001862283
 C         -1.1792562440       -1.4143592390       -0.0003821814
 C          0.0235430874       -2.0965785147       -0.0000154020
 C          1.2107508162       -1.3891385290        0.0005310111
 C          1.2178439597       -0.0022872907        0.0006348549
 C         -0.0033848614        0.6750262525        0.0001987373
 O          0.0196384790        2.0427106173        0.0004050858
 C          2.5124293740        0.7549044016       -0.0009504332
 H         -2.6235741097        1.3361163589        0.8893752968
 H         -2.6194789582        1.3438027684       -0.8845517934
 H         -3.3481959860        0.0037995335       -0.0050540441
 H         -2.1101108248       -1.9629571077       -0.0003073393
 H          0.0331863828       -3.1760482030        0.0001548339
 H          2.1546912277       -1.9145530217        0.0009654122
 H         -0.8853785213        2.3734605585        0.0036659830
 H          3.1177342534        0.4701976068        0.8584394658
 H          3.0805276227        0.5283518893       -0.9023690386
 H          2.3248166143        1.8232408704        0.0367736841
  19
  -26.2928542400000       2.394852233150166E-002 !gc
 C         -2.5228396424        0.7106037364        0.0000325339
 C         -1.2117746591       -0.0284614444       -0.0001702873
 C         -1.1792513459       -1.4143548843       -0.0003931162
 C          0.0235457238       -2.0965752985       -0.0000429409
 C          1.2107557918       -1.3891305832        0.0004837712
 C          1.2178384801       -0.0022851484        0.0005962310
 C         -0.0033786614        0.6750391520        0.0001492468
 O          0.0196252384        2.0427248335        0.0002217025
 C          2.5124459370        0.7548713025       -0.0007538531
 H         -2.6200910510        1.3426905230       -0.8851203997
 H         -3.3482123117        0.0038183939       -0.0034481192
 H         -2.6229621226        1.3372346465        0.8888152128
 H         -2.1100990080       -1.9629689043       -0.0000610781
 H          0.0331710018       -3.1760431523        0.0001333557
 H          2.1547096292       -1.9145177885        0.0007003160
 H         -0.8853805538        2.3734632275        0.0023937521
 H          3.1143361990        0.4754673027        0.8627951095
 H          3.0841070365        0.5227552376       -0.8984795658
 H          2.3247268829        1.8234200273        0.0299249032
