! r2scan-3c def2/J RI DEFGRID2 scfconv6 printgap
%output
    printlevel normal
end
* xyz 0 1
C -2.6422564434 0.2840044608 0.9884961632
C -2.1641347537 0.4451303841 -0.4498334699
C -0.8616463492 -0.3006413088 -0.7010416554
O 0.1790609477 0.3292820492 0.0604383789
C 1.4017281086 -0.1768451582 -0.0318735607
O 1.6694509803 -1.1383856962 -0.7242457512
C 2.3818793772 0.5781769056 0.8144728216
H -3.5607202255 0.842608883 1.144671846
H -2.8307540048 -0.7633988692 1.2120648422
H -1.8876607467 0.6549884048 1.6768961139
H -2.0063869229 1.5013642839 -0.6698846018
H -2.9126432146 0.055428371 -1.1396876859
H -0.9325707305 -1.3494258864 -0.3933239522
H -0.5793654463 -0.2748773532 -1.7589860845
H 3.3830174864 0.1997089581 0.6374546042
H 2.1165780888 0.4521227434 1.8610225568
H 2.323719049 1.6362789665 0.5759710538
*
