! r2scan-3c def2/J RI DEFGRID2 scfconv6 printgap
%output
    printlevel normal
end
* xyz 0 1
C -2.1701992975 0.7638000255 1.0166753134
C -1.8969725284 0.0824605723 -0.3236168008
C -0.4557807556 -0.3406600232 -0.4566940606
O -0.094470129 -1.4627977118 -0.7491207882
O 0.3795550403 0.6656788871 -0.2391264708
C 1.7913859853 0.4124030833 -0.3181216349
C 2.3311435234 -0.1161244037 1.0020610796
H -3.2123756271 1.0643071944 1.0679084663
H -1.9642732754 0.0827468796 1.8386580369
H -1.5428382464 1.643668269 1.125907252
H -2.1096093837 0.7793167334 -1.1363795422
H -2.5181293916 -0.8046098751 -0.4468977011
H 1.9727022467 -0.30685674 -1.1227117241
H 2.2292130457 1.3793416025 -0.5676380977
H 3.4066865164 -0.2388839501 0.9272548279
H 2.1038520863 0.578847856 1.8058328421
H 1.8811198789 -1.0802976529 1.2283683414
*
