! r2scan-3c def2/J RI DEFGRID2 scfconv6 printgap
%output
    printlevel normal
end
%cpcm
    smd true
    smdsolvent "water"
end
* xyz 0 1
C -2.1635730145 0.9704569973 0.8743548363
C -1.9151561548 -0.0628206931 -0.2196865599
C -0.4594002554 -0.4138769858 -0.3971043111
O -0.0643693404 -1.5174927992 -0.7188427911
O 0.3425839003 0.6220704247 -0.2008914725
C 1.758559478 0.4308946355 -0.3471035326
C 2.3846947029 -0.0385112582 0.9571999814
H -3.2260490453 1.1860187823 0.9379558336
H -1.8274046281 0.5938982904 1.8368402985
H -1.629179289 1.8902295945 0.6564954305
H -2.2601554968 0.3268341179 -1.1807357957
H -2.4548541975 -0.9897680071 -0.0227724889
H 1.9330378095 -0.2996956563 -1.1429491713
H 2.1394826154 1.409780401 -0.6401239162
H 2.1623207192 0.6658607769 1.7541266825
H 1.9919780489 -1.0162613655 1.2275824345
H 3.4601185563 -0.113001884 0.8336532619
*
