! r2scan-3c def2/J RI DEFGRID2 scfconv6 printgap
%output
    printlevel normal
end
* xyz 0 1
C -1.0140400544 -0.4639549559 -0.315367406
C 0.1445320813 0.3490806092 0.2761318149
C 1.4781597875 -0.0737255723 -0.3420843799
O 1.7396659891 -1.4086525074 0.0239067779
O -0.0285090924 1.7291125779 0.0402783472
O -2.249274065 -0.1064639648 0.2632616503
H -0.801294217 -1.5306274967 -0.1948451274
H -1.1056206438 -0.2349004952 -1.3800468364
H 0.1960848432 0.1614556657 1.3618924046
H 2.2546579457 0.6042368541 0.0322295327
H 1.4120703364 0.0349056169 -1.4319643387
H 2.5934030089 -1.6769816534 -0.3434220248
H -0.9737323059 1.9286943529 0.1304939209
H -2.2866060265 -0.436241808 1.1718342697
*
