! r2scan-3c def2/J RI DEFGRID2 scfconv6 printgap
%output
    printlevel normal
end
* xyz 0 1
C -1.849815643 0.9707573238 0.0048156547
C -1.8128077133 -0.5247272236 0.2961484156
C -0.5745399955 -1.2327699897 -0.2579809257
C 0.7277678453 -0.8667288349 0.4378719742
Cl 1.4525059675 0.6544795539 -0.2010237509
H -2.7894478675 1.3967947182 0.3485738354
H -1.0382867826 1.4890920054 0.5076064556
H -1.7605954711 1.1536527362 -1.0638724542
H -2.6939408845 -0.9904069514 -0.1498023715
H -1.8639995179 -0.6850451789 1.3749692848
H -0.7096952187 -2.3086391873 -0.1278520872
H -0.484415052 -1.0354606479 -1.3273314422
H 1.4867960123 -1.6291588893 0.2735750247
H 0.5820271019 -0.7083317436 1.5049453604
*
