! r2scan-3c def2/J RI DEFGRID2 scfconv6 printgap
%output
    printlevel normal
end
* xyz 0 1
C 0.0468494578 -2.5850777279 0.045142577
C -0.0629812783 -1.0973698023 -0.2240081168
O 0.8521895271 -0.3722953783 0.5877160988
C 1.8027541221 0.3705372512 -0.0046234771
O 2.0088950501 0.3489510901 -1.1952006593
C 2.5507066508 1.1847120541 0.9986738228
O -1.3733253942 -0.6872231861 0.1283448844
C -1.729029479 0.5890747804 -0.0969856702
O -0.9827797089 1.3986797714 -0.5998025355
C -3.1244309302 0.849257628 0.3639811285
H 1.0347432863 -2.930203047 -0.2420431476
H -0.7083415291 -3.1060939273 -0.5332122516
H -0.1140496509 -2.7653733841 1.1036182982
H 0.1351105001 -0.8380964372 -1.2759374364
H 2.5382878658 0.6892242544 1.9634854724
H 3.5632732758 1.356858785 0.6486644452
H 2.0445785793 2.1444448756 1.0882229136
H -3.5156171389 1.7298787547 -0.134694833
H -3.7418527013 -0.0228653154 0.1757129038
H -3.1015096759 1.0282492885 1.4371201061
*
