! pbe def2-sv(p) def2/J RI DEFGRID1 loosescf d4 GCP(DFT/SV(P)) printgap
%output
    printlevel normal
end
* xyz 0 1
C 3.4177960661 -2.0396255588 -0.209234532
C 3.0716062984 -0.8978366235 0.7496423394
C 3.2643584158 0.4378095523 0.0751435306
O 4.380013147 0.8789604898 -0.1761647856
N 2.1794693 1.1991215745 -0.2241360695
C 0.8101033115 0.9678063666 -0.0796830513
C -0.0073834986 2.0311353274 0.3080585356
C -1.3691678895 1.8577760838 0.4490252974
C -1.9431650412 0.619790201 0.1998817861
C -1.1398694384 -0.4353118192 -0.2141678351
C 0.2261141975 -0.2646032822 -0.3632035494
Cl -1.8423442724 -1.9798992635 -0.5686066917
Cl -3.6528138322 0.3995980185 0.3866966054
H 4.435143173 -1.9162580943 -0.573172753
H 2.7514560123 -2.0526451003 -1.0685364163
H 3.3419398567 -2.9930613788 0.3054313392
H 3.7769238154 -0.9251446053 1.5828481498
H 2.060922298 -0.9997748738 1.1385604622
H 2.4262011237 2.1381879852 -0.5210621317
H 0.4283275242 2.996609062 0.5072078279
H -1.9968421027 2.6774562867 0.7561846549
H 0.8141681267 -1.0887643493 -0.7269496696
*
