! pbe def2-sv(p) def2/J RI DEFGRID1 loosescf d4 GCP(DFT/SV(P)) printgap
%output
    printlevel normal
end
* xyz 0 1
C -3.2349276044 1.2669242023 0.0703164368
C -1.9018088566 0.7245173713 -0.3251441362
O -1.6900346573 -0.0279037804 -1.2515768518
O -0.9280256978 1.2163380659 0.4523452899
C 0.3949657749 0.8417533889 0.2525365393
C 1.3401363335 1.8550949525 0.1909520211
C 2.6754728511 1.5401542727 0.0109467669
C 3.0675462187 0.2177901887 -0.1255918038
C 2.1246475712 -0.7921372716 -0.0760419995
C 0.7768797127 -0.4946153382 0.1187003978
C -0.225988319 -1.5848558662 0.266653408
O -1.0781551874 -1.5732545232 1.1311199652
O -0.1228878741 -2.617740041 -0.5592396818
H -3.4640292654 2.1197981746 -0.5660002356
H -3.2113884088 1.585577836 1.1069411586
H -3.9921980556 0.5054085798 -0.0891527731
H 1.0106633605 2.8763788008 0.2912652589
H 3.4076327383 2.3303465903 -0.0259550954
H 4.1072041625 -0.0280005899 -0.268072924
H 2.4345409624 -1.8234446626 -0.1489226718
H 0.5460434577 -2.501741648 -1.2591900502
*
