! r2scan-3c def2/J RI DEFGRID2 scfconv6 printgap
%output
    printlevel normal
end
* xyz 0 1
C -1.4415995554 0.3922310121 -0.2377012126
C -0.0097055483 0.37364935 0.3023118465
C 0.7946464108 -0.7506962352 -0.372450743
O 2.1005670366 -0.8747904608 0.1438251187
O 0.5507901058 1.6477682632 0.0498706905
O -2.0741254721 -0.8166233172 0.1093857812
H -1.4041257894 0.5240833125 -1.32663
H -1.9587024211 1.2539657544 0.2020553366
H -0.0487038143 0.1738671801 1.3810507506
H 0.8179760824 -0.5759447514 -1.4541400555
H 0.2883441128 -1.6966200742 -0.1732112997
H 2.6430918079 -0.1491321454 -0.1955513721
H 1.3126846461 1.7799227693 0.6302466527
H -2.9883506885 -0.798276911 -0.206485233
*
