! r2scan-3c def2/J RI DEFGRID2 scfconv6 printgap
%output
    printlevel normal
end
%cpcm
    smd true
    smdsolvent "water"
end
* xyz 0 1
C 1.548571657 0.3648545151 1.5862776321
C 1.4018734579 -0.2702601893 0.2087046967
C 2.3475773744 0.4062686289 -0.7940406449
C 0.0075845724 -0.2718566216 -0.4010180946
O -0.1714269374 -0.8083910157 -1.4784929328
C -1.1457340097 0.3558666965 0.3559280298
C -1.8105047911 -0.7659487418 1.1664893987
C -2.1489647043 0.9773856317 -0.614148848
H 0.8835445255 -0.0921812319 2.3128806034
H 1.3540821779 1.4336951365 1.5465383025
H 2.5707271828 0.225363699 1.93049278
H 1.6880328898 -1.327613205 0.2706058148
H 2.2382884997 -0.0470989291 -1.776370234
H 2.1140700051 1.4659269947 -0.8733038214
H 3.3781909273 0.2990155437 -0.4679485988
H -0.777197686 1.1218839417 1.0378852583
H -2.1804617388 -1.5366135374 0.4935975608
H -1.1071507491 -1.22182313 1.8582574981
H -2.6468474286 -0.3635380636 1.7313289566
H -3.0167098878 1.3441662168 -0.0732085895
H -1.693753481 1.8056630853 -1.1525492039
H -2.4717653081 0.2360374691 -1.3415264208
*
