  16
        -19.86237938
 C         -2.7885010630        0.2727763750        0.0154647362
 C         -1.4310902854       -0.4075605935       -0.0985605234
 C         -0.2852945455        0.5847072213        0.0801280007
 C          1.0751248397       -0.0766325551        0.0243365359
 O          1.2285758244       -1.2705556014        0.0337210099
 C          2.2320196617        0.8919211870       -0.0516816254
 H         -2.8955227126        1.0460662985       -0.7428067052
 H         -2.9059127988        0.7343612377        0.9938818594
 H         -3.5885631438       -0.4507101291       -0.1192005456
 H         -1.3374197068       -0.8862642680       -1.0750714176
 H         -1.3414650427       -1.1894301416        0.6571277729
 H         -0.3302873536        1.3669823918       -0.6811943770
 H         -0.3698263556        1.0767089074        1.0537584412
 H          3.1642041174        0.3814485060        0.1747727129
 H          2.0863787561        1.7257722552        0.6296534041
 H          2.2893199054        1.2865128473       -1.0649740983
