  16
        -19.86237938
 C         -2.7885010630        0.2727763750        0.0154647362
 C         -1.4310902854       -0.4075605935       -0.0985605234
 C         -0.2852945455        0.5847072213        0.0801280007
 C          1.0751248397       -0.0766325551        0.0243365359
 O          1.2285758244       -1.2705556014        0.0337210099
 C          2.2320196617        0.8919211870       -0.0516816254
 H         -2.8955227126        1.0460662985       -0.7428067052
 H         -2.9059127988        0.7343612377        0.9938818594
 H         -3.5885631438       -0.4507101291       -0.1192005456
 H         -1.3374197068       -0.8862642680       -1.0750714176
 H         -1.3414650427       -1.1894301416        0.6571277729
 H         -0.3302873536        1.3669823918       -0.6811943770
 H         -0.3698263556        1.0767089074        1.0537584412
 H          3.1642041174        0.3814485060        0.1747727129
 H          2.0863787561        1.7257722552        0.6296534041
 H          2.2893199054        1.2865128473       -1.0649740983
  16
        -19.86220238
 C         -2.1231775418       -0.0223722362        0.7590185076
 C         -1.5403330775       -0.1566025251       -0.6423192341
 C         -0.2221904452        0.6044234868       -0.7759056278
 C          0.9153698671       -0.0572877944       -0.0236158285
 O          0.9256292550       -1.2266816445        0.2616035363
 C          2.0493104611        0.8758975713        0.3262522107
 H         -3.0624522001       -0.5647149620        0.8333250565
 H         -2.3101999771        1.0227230641        1.0002072398
 H         -1.4336407790       -0.4307392098        1.4937461690
 H         -2.2541766456        0.2250639823       -1.3752091813
 H         -1.3577988921       -1.2103774059       -0.8581559375
 H          0.0818408293        0.6336428187       -1.8268618729
 H         -0.3352532325        1.6358736699       -0.4372824742
 H          2.9195757484        0.3094042688        0.6466247535
 H          1.7303820486        1.5214342463        1.1431264397
 H          2.3039607835        1.5047612917       -0.5230202264
  16
        -19.86193608
 C         -2.7908862426        0.2750320555       -0.0062689658
 C         -1.4346228047       -0.4170028077        0.0013693259
 C         -0.2876229998        0.5889727728       -0.0005522562
 C          1.0724664523       -0.0713900303        0.0007158463
 O          1.2251785742       -1.2659896647       -0.0003786451
 C          2.2405106369        0.8893613385        0.0048442074
 H         -3.5919399787       -0.4597103589       -0.0051332580
 H         -2.8995280449        0.8979592054       -0.8920301519
 H         -2.9050578561        0.9067859231        0.8725144742
 H         -1.3410792091       -1.0617603957       -0.8741410334
 H         -1.3463991377       -1.0528354909        0.8839370960
 H         -0.3480534909        1.2335094272       -0.8821453341
 H         -0.3479180566        1.2378469350        0.8778431304
 H          2.8784750360        0.6774880408       -0.8509138375
 H          2.8357939632        0.7168674543        0.8995971676
 H          1.9193024880        1.9256573645       -0.0248065405
  16
        -19.86186057
 C         -2.7410531719        0.3390552164       -0.0308142255
 C         -1.3289052834        0.0019187787       -0.4913657796
 C         -0.3105265982        0.1929348755        0.6411185764
 C          1.0690544506       -0.1860920716        0.1471034636
 O          1.4842687311       -1.3157134640        0.1958963149
 C          1.8676863287        0.9543571562       -0.4308424514
 H         -3.4479350975        0.1980188336       -0.8448866802
 H         -2.7997060205        1.3739162874        0.2998861120
 H         -3.0369581226       -0.3024701544        0.7958874629
 H         -1.0600864601        0.6401238655       -1.3363536386
 H         -1.2895147204       -1.0350333742       -0.8299224161
 H         -0.3256862600        1.2301085345        0.9777485441
 H         -0.5822326039       -0.4617708279        1.4707726533
 H          2.1760332681        1.6121246354        0.3803300233
 H          1.2574067690        1.5325367647       -1.1201572011
 H          2.7522980008        0.5802543636       -0.9390590994
  16
        -19.86181779
 C         -2.0288747647       -0.1161303632       -0.7566278654
 C         -1.4279806069        0.7438522035        0.3485031058
 C         -0.2591962096        0.0362199354        1.0403988973
 C          0.9026029587       -0.2465798605        0.1106289558
 O          1.3276599704       -1.3600107056       -0.0659258355
 C          1.4986515460        0.9609051387       -0.5707042623
 H         -1.2837909703       -0.3499271929       -1.5138791581
 H         -2.8575241031        0.4010715388       -1.2349959789
 H         -2.3984304952       -1.0539348617       -0.3485771316
 H         -2.1953045357        0.9580476182        1.0957519873
 H         -1.0948096199        1.6979491199       -0.0633710019
 H          0.1114601410        0.6611529693        1.8569117331
 H         -0.6002427037       -0.9122345538        1.4600145949
 H          0.8809767909        1.2228456026       -1.4281856337
 H          2.4970021371        0.7253491650       -0.9303498343
 H          1.5336435703        1.8138731709        0.1011180184
  16
        -19.86166729
 C         -2.0859973831       -0.4897915345       -0.5010332462
 C         -1.4275221669        0.7766456384        0.0298056019
 C         -0.2232625429        0.4652730298        0.9323146745
 C          0.8959570003       -0.1629151235        0.1294691694
 O          1.0370772666       -1.3553396562        0.0320303434
 C          1.8177117780        0.8226539680       -0.5435705679
 H         -2.4688665911       -1.0913653587        0.3200374080
 H         -1.3710516415       -1.0915890392       -1.0562086855
 H         -2.9140224024       -0.2391113521       -1.1601769711
 H         -2.1550963473        1.3487245647        0.6099525308
 H         -1.1063510928        1.4017729963       -0.8065826677
 H          0.1305311964        1.3874050517        1.3954598364
 H         -0.5371199572       -0.2337187037        1.7091932898
 H          2.4344830628        0.3205183672       -1.2840946383
 H          2.4658556929        1.2622145938        0.2133159791
 H          1.2513731773        1.6247996690       -1.0092666522
  16
        -19.86159749
 C         -2.0316245039       -0.2378785917        0.6858091813
 C         -1.4409422160        0.7280543825       -0.3331660769
 C         -0.2218207133        0.1310246113       -1.0491478172
 C          0.8935428590       -0.2134958392       -0.0830901895
 O          1.1513763528       -1.3490019893        0.2258349069
 C          1.6627536830        0.9668694541        0.4547892422
 H         -2.9016588349        0.2026423542        1.1674864476
 H         -1.3003960658       -0.4851647542        1.4517901278
 H         -2.3368060344       -1.1618349973        0.2005123448
 H         -1.1604438587        1.6600477983        0.1619274512
 H         -2.1961922933        0.9700352162       -1.0843348718
 H         -0.5240996210       -0.7834216727       -1.5628279918
 H          0.1495159854        0.8471981519       -1.7844058901
 H          2.3900978483        0.6358420497        1.1912448500
 H          0.9849944495        1.6855572469        0.9084028502
 H          2.1805116672        1.4625482646       -0.3640350503
  16
        -19.86159245
 C         -2.7643530110        0.2732939086       -0.0131124376
 C         -1.3708105059       -0.1639450632        0.4171574307
 C         -0.2908483416        0.3936553825       -0.5176340448
 C          1.0719935920       -0.1293461171       -0.1101647453
 O          1.3358624064       -1.3046343602       -0.1129197979
 C          2.0578180465        0.9284178990        0.3152405101
 H         -2.9864611966       -0.0871807304       -1.0149732032
 H         -2.8428323413        1.3586532342       -0.0139446179
 H         -3.5127762837       -0.1237321061        0.6682503998
 H         -1.3048303665       -1.2531053740        0.4155564876
 H         -1.1773430805        0.1810762258        1.4357667222
 H         -0.4980276730        0.0469515895       -1.5328483564
 H         -0.3084880285        1.4836541751       -0.5073584654
 H          1.6453574143        1.4914736120        1.1501288212
 H          2.2260251401        1.6201592125       -0.5077734395
 H          3.0005351191        0.4751566472        0.6094499456
  16
        -19.86158858
 C         -2.7670975939        0.2643922260        0.0016230620
 C         -1.3721718184       -0.1837358271       -0.4127009642
 C         -0.2916841835        0.4245378353        0.4887473227
 C          1.0716337319       -0.1216747671        0.1140141320
 O          1.3242005936       -1.2988088926        0.1527705067
 C          2.0743475246        0.9146077302       -0.3244745693
 H         -2.9818207278       -0.0464187910        1.0216128222
 H         -3.5154161485       -0.1727078088       -0.6549781682
 H         -2.8542348393        1.3477697488       -0.0524679403
 H         -1.1849321834        0.1128902905       -1.4475581795
 H         -1.2989312560       -1.2710685051       -0.3588308063
 H         -0.3079449310        1.5123655855        0.4188542095
 H         -0.4984420581        0.1354695673        1.5221157363
 H          3.0181601486        0.4445147967       -0.5869879915
 H          2.2335075863        1.6301325995        0.4798348612
 H          1.6825316295        1.4547429907       -1.1842213333
  16
        -19.86157280
 C         -2.7486500898        0.3650849670       -0.0147913548
 C         -1.3052790794        0.3339902701       -0.5026463537
 C         -0.3592957988       -0.1371486360        0.6056734860
 C          1.0763058747       -0.2669390571        0.1438242370
 O          1.6870433175       -1.3018878436        0.2316629650
 C          1.6888908814        0.9837658446       -0.4362678209
 H         -2.8532189477        1.0460812382        0.8271852363
 H         -3.0665466711       -0.6248084282        0.3041048881
 H         -3.4111853147        0.6980867129       -0.8101758547
 H         -1.0185876961        1.3321124102       -0.8377100794
 H         -1.2249127833       -0.3450781571       -1.3541850934
 H         -0.3885592064        0.5767443049        1.4330152103
 H         -0.6875675239       -1.1087925356        0.9801460573
 H          2.7728212291        0.9041296849       -0.4235998248
 H          1.3710267251        1.8678354737        0.1089314910
 H          1.3659285224        1.0811299293       -1.4716136871
  16
        -19.86148476
 C         -2.7460329179        0.3412089963       -0.0123071729
 C         -1.3127929546        0.2544576146        0.4970716306
 C         -0.3363021697       -0.0479336794       -0.6461829204
 C          1.0738198703       -0.2445017842       -0.1312327498
 O          1.6003193030       -1.3276803722       -0.0991917905
 C          1.7623954355        1.0042844015        0.3604108802
 H         -3.4269763100        0.5571745476        0.8075045519
 H         -3.0473419457       -0.5980842776       -0.4699158231
 H         -2.8408237358        1.1304619399       -0.7550444589
 H         -1.2395080398       -0.5359314944        1.2469888709
 H         -1.0426149539        1.1988195039        0.9732513725
 H         -0.6491455421       -0.9641147287       -1.1504894488
 H         -0.3538117179        0.7741490341       -1.3640448054
 H          2.8186544322        0.8071905572        0.5230088583
 H          1.3151296887        1.3066781885        1.3054956456
 H          1.6403167042        1.8177733007       -0.3496669915
  16
        -19.86142464
 C         -2.1691520536       -0.2527230533       -0.6958194591
 C         -1.5387048413       -0.0138344888        0.6706252222
 C         -0.2375447976        0.7788619181        0.5640350086
 C          0.9132470878       -0.0264316471       -0.0000628211
 O          0.8455437541       -1.2042309563       -0.2412255608
 C          2.1841287018        0.7643895834       -0.2176835286
 H         -2.3954920788        0.6926583016       -1.1859841573
 H         -3.0933342656       -0.8161214230       -0.5937092677
 H         -1.4903589383       -0.8194444971       -1.3272686449
 H         -1.3254536470       -0.9751240888        1.1408756102
 H         -2.2393929513        0.5301755744        1.3078353399
 H         -0.3806679207        1.6622170246       -0.0633747787
 H          0.0768772484        1.1299342772        1.5514256449
 H          2.0544313243        1.8197807552       -0.0003957913
 H          2.5120081953        0.6376655572       -1.2474174863
 H          2.9650286152        0.3550182460        0.4207907257
  16
        -19.86055089
 C         -2.7701770472        0.3499793325       -0.0216672193
 C         -1.2911425649        0.7192199980       -0.0723085209
 C         -0.4190524331       -0.5236469224        0.0637598874
 C          1.0856226129       -0.3397784351        0.0303778410
 O          1.8220925605       -1.2905529745        0.1268749448
 C          1.6122903098        1.0626653232       -0.1249455197
 H         -3.3885083817        1.2392719706       -0.1178282065
 H         -3.0119590835       -0.1347285490        0.9216445627
 H         -3.0227912000       -0.3318017650       -0.8307726671
 H         -1.0730626999        1.4201459985        0.7355272831
 H         -1.0838135841        1.2202660626       -1.0196334834
 H         -0.6502306964       -1.0334468251        1.0040886644
 H         -0.6648614046       -1.2342499938       -0.7312667102
 H          1.2664277453        1.6826540808        0.6986804434
 H          1.2471997311        1.4968378740       -1.0525340845
 H          2.6990207535        1.0454736809       -0.1348906165
  16
        -19.86047074
 C         -2.2069690918       -0.6844297420        0.1697046851
 C         -1.5016154141        0.4869897270       -0.5007153621
 C         -0.2398285847        0.9296444744        0.2526650098
 C          0.9162490868       -0.0385500759        0.0911886163
 O          0.8035461053       -1.2325615652        0.2006924588
 C          2.2383127544        0.6204154532       -0.2184259616
 H         -3.0794358474       -0.9800775991       -0.4084729178
 H         -2.5338936299       -0.4100492229        1.1707884357
 H         -1.5345907713       -1.5337120656        0.2448644980
 H         -2.1847878153        1.3381439088       -0.5584645755
 H         -1.2274059747        0.2114573011       -1.5216160003
 H          0.0659028530        1.9211741835       -0.0838686427
 H         -0.4693668083        0.9891940677        1.3203095814
 H          2.1776056698        1.1028815640       -1.1922850918
 H          3.0357925326       -0.1177916132       -0.2317289952
 H          2.4549042683        1.3848740276        0.5245858597
