! pbe def2-sv(p) def2/J RI DEFGRID1 loosescf d4 GCP(DFT/SV(P)) printgap
%output
    printlevel normal
end
* xyz 0 1
C -3.0156917633 -0.6746429253 2.0550004572
C -3.0020975749 -1.4636609589 0.7503803401
C -2.7257872466 -0.5735972667 -0.464405811
H -3.4885700987 0.2110006526 -0.506094724
C -2.7425263403 -1.3561308814 -1.7735310238
N -1.4535854229 0.1568285331 -0.3097881175
C -0.262232234 -0.5580580686 -0.2111406741
O -0.2293104451 -1.7741617099 -0.2663688313
C 0.9191358739 0.261776878 -0.0384780028
C 0.8780055254 1.6164206284 0.0185740406
N -0.3479455487 2.2004929382 -0.0906241561
C -1.5331988758 1.5284699896 -0.2486566288
O -2.580001312 2.1477509049 -0.3299110397
C 2.0547249955 2.5007520115 0.2051962679
Br 2.5529020737 -0.6972100961 0.1139375114
H -3.3340724855 -1.3123363375 2.8746930308
H -2.0231884997 -0.2930209019 2.2900113476
H -3.6986468573 0.1695893777 1.9832529976
H -2.2540960171 -2.255699652 0.8000160519
H -3.9763923105 -1.9273464036 0.5951213846
H -3.7255905951 -1.7945348442 -1.9131020234
H -2.5326706353 -0.6949971256 -2.6112477979
H -2.0024129769 -2.1513951212 -1.7539071536
H -0.4266489328 3.2117666776 -0.0444611946
H 1.8349096672 3.511997779 -0.1206368791
H 2.909191816 2.1152199982 -0.3458833696
H 2.3326904711 2.5237060955 1.2584611077
*
