  28
        -32.50742248
 C         -5.4134743914        0.2247890249        0.2023277566
 C         -4.0356826491        0.7197215314       -0.2200175832
 C         -2.9342002628       -0.2628363096        0.1702516330
 C         -1.5509351694        0.2275671955       -0.2500997519
 C         -0.4502291189       -0.7564742458        0.1384115566
 C          0.9323920959       -0.2625793392       -0.2797318757
 C          2.0326880564       -1.2509105279        0.1016869556
 C          3.4131639622       -0.7369500321       -0.3073810262
 C          3.7912984807        0.5025759008        0.4471777195
 O          4.3037776210        1.4788734515       -0.0216843716
 H         -5.4563346255        0.0903583105        1.2810673799
 H         -6.1821016357        0.9383373131       -0.0852902445
 H         -5.6371885026       -0.7295774275       -0.2696479399
 H         -3.8380816872        1.6866878466        0.2482396540
 H         -4.0192725890        0.8677331099       -1.3022422690
 H         -3.1321733760       -1.2300797009       -0.2980540332
 H         -2.9513244372       -0.4112397013        1.2526927975
 H         -1.3523473612        1.1940511407        0.2190647508
 H         -1.5347827610        0.3779119863       -1.3321360991
 H         -0.4681511857       -0.9087675028        1.2203010046
 H         -0.6463130040       -1.7224401407       -0.3333625384
 H          0.9480654886       -0.1051930889       -1.3605431059
 H          1.1333891810        0.7013834673        0.1943798388
 H          2.0136321566       -1.4187174062        1.1813134785
 H          1.8458100806       -2.2093388571       -0.3867852030
 H          4.1680516807       -1.4923950962       -0.0682732569
 H          3.4561254624       -0.5382676534       -1.3795285289
 H          3.5641520475        0.4424632006        1.5317356007
