  14
        -20.77619736
 C         -2.6746366609        0.4122167637        0.0971869503
 C         -1.3304780627        0.0550283140       -0.5226629451
 C         -0.3954500586       -0.5610378166        0.5148064894
 O          0.8435449248       -0.9717947317       -0.0757123145
 C          1.7857181974       -0.0565178758       -0.1952215844
 O          1.7310591015        1.0862612832        0.1511322017
 H         -3.1594350976       -0.4743456194        0.4995954859
 H         -2.5437709045        1.1296371709        0.9035912193
 H         -3.3277170498        0.8520151741       -0.6516081933
 H         -0.8600783130        0.9519825615       -0.9298332580
 H         -1.4709388053       -0.6567986232       -1.3386631961
 H         -0.1869474084        0.1615930759        1.3104983667
 H         -0.8278641349       -1.4690882828        0.9400496990
 H          2.6682515379       -0.5208068987       -0.6689561111
  14
        -20.77606128
 C         -2.3078741645       -0.0777013372       -0.6840284678
 C         -1.3976708274        0.5102581411        0.3870008105
 C         -0.3368018355       -0.4888906007        0.8424396051
 O          0.5472955818       -0.8421126168       -0.2287545828
 C          1.5730813646       -0.0437684385       -0.4483735287
 O          1.8652701470        0.9427842287        0.1605129290
 H         -1.7232215972       -0.4020249350       -1.5414955095
 H         -2.8503666643       -0.9359840727       -0.2938230862
 H         -3.0286789569        0.6644574935       -1.0171841523
 H         -1.9843315174        0.8019662665        1.2595033147
 H         -0.8960636597        1.4009067412        0.0039674647
 H          0.2549623838       -0.0648821695        1.6600314894
 H         -0.7945547003       -1.4287101788        1.1573574726
 H          2.1510803422       -0.4408858461       -1.3014822403
  14
        -20.77579052
 C         -1.8351099220        0.8496182437       -0.4544687771
 C         -1.7067191630       -0.5583471897        0.1140340439
 C         -0.3219577873       -0.8156464693        0.7032487868
 O          0.6724643845       -0.8320891641       -0.3284170242
 C          1.5237307254        0.1726923960       -0.3829540159
 O          1.5934360182        1.1103607055        0.3553464726
 H         -1.1273771867        1.0015738115       -1.2665191649
 H         -2.8381160594        1.0104848911       -0.8414430511
 H         -1.6359606446        1.5918529443        0.3151121284
 H         -1.8966782660       -1.2936061518       -0.6699649231
 H         -2.4404400611       -0.7071335642        0.9078904712
 H         -0.0604370886       -0.0399106674        1.4299132825
 H         -0.2826352951       -1.7990985749        1.1790701543
 H          2.1988660303        0.0095123233       -1.2415317916
  14
        -20.77512569
 C         -2.4434759346        0.2675845350       -0.6367643689
 C         -1.7480222720       -0.5725271167        0.4273555032
 C         -0.3275952858       -0.0924340457        0.6870018070
 O          0.4632998572       -0.3356491671       -0.4847271295
 C          1.7159522697        0.0682254903       -0.4421857310
 O          2.2605734413        0.6165458433        0.4703448125
 H         -1.8793929953        0.2365750525       -1.5650703015
 H         -3.4436481495       -0.1132745265       -0.8257526826
 H         -2.5237188223        1.3030406515       -0.3137239286
 H         -1.7103312860       -1.6146957440        0.1069911185
 H         -2.3016698208       -0.5217963303        1.3661659084
 H         -0.3045768724        0.9800451429        0.9094502688
 H          0.1259353112       -0.6261602047        1.5294729958
 H          2.2032829546       -0.1802396214       -1.4011712016
  14
        -20.77510810
 C         -2.5160186204        0.0192395136       -0.6658549228
 C         -1.7180722043       -0.4681596196        0.5372296770
 C         -0.3506921856        0.1959712522        0.6147140363
 O          0.4374440934       -0.2301584481       -0.5054553475
 C          1.7363911646       -0.0280713373       -0.4294667363
 O          2.3328686129        0.4771894929        0.4754472924
 H         -1.9674939457       -0.1795044488       -1.5825173136
 H         -3.4746347555       -0.4904598648       -0.7165008702
 H         -2.6972310320        1.0893460553       -0.5952374111
 H         -1.5793109966       -1.5484476684        0.4732928113
 H         -2.2568411520       -0.2462249023        1.4597671622
 H         -0.4422515992        1.2871127748        0.5788025511
 H          0.1765504416       -0.0754585469        1.5356423547
 H          2.2091596074       -0.4088556912       -1.3516584691
  14
        -20.77225084
 C         -2.6402810744        0.5420021021       -0.2406608520
 C         -1.7071475766       -0.6465286295       -0.0412966217
 C         -0.3490676440       -0.2319945732        0.5317255211
 O          0.6850656913       -0.6380417651       -0.3771409044
 C          1.8317124845        0.0070559835       -0.3100627058
 O          2.1112291114        0.9017498799        0.4325259179
 H         -3.5845235120        0.2111392364       -0.6658192406
 H         -2.8444833132        1.0310233484        0.7090556037
 H         -2.1961431758        1.2693543025       -0.9159007640
 H         -1.5267556516       -1.1349605547       -1.0000880018
 H         -2.1808262060       -1.3749132022        0.6172076566
 H         -0.2820913905        0.8528334705        0.6652830256
 H         -0.1511294647       -0.7051756186        1.4985500468
 H          2.5168002991       -0.4092137626       -1.0689469656
  14
        -20.77221601
 C         -2.8414820680        0.1149267474       -0.3547784530
 C         -1.6586110657       -0.4999118716        0.3833910256
 C         -0.3728107410        0.3128602538        0.2067586167
 O          0.6224979272       -0.5165006176       -0.4114606405
 C          1.8840298275       -0.1890584005       -0.2210122404
 O          2.3000681878        0.7352771394        0.4134761446
 H         -3.7291965240       -0.4972008462       -0.2171252165
 H         -3.0516269747        1.1128444332        0.0232371031
 H         -2.6335583964        0.1835216036       -1.4196889541
 H         -1.4715899930       -1.5033778303       -0.0019752635
 H         -1.8975513391       -0.5892084037        1.4435938258
 H         -0.5405506308        1.1780179579       -0.4431763680
 H          0.0270275198        0.6755066444        1.1587552996
 H          2.5222292734       -0.9204774211       -0.7467280664
