  14
  -20.7761973600000       6.219234028371446E-002 !gc
 C         -2.6746366609        0.4122167637        0.0971869503
 C         -1.3304780627        0.0550283140       -0.5226629451
 C         -0.3954500586       -0.5610378166        0.5148064894
 O          0.8435449248       -0.9717947317       -0.0757123145
 C          1.7857181974       -0.0565178758       -0.1952215844
 O          1.7310591015        1.0862612832        0.1511322017
 H         -3.1594350976       -0.4743456194        0.4995954859
 H         -2.5437709045        1.1296371709        0.9035912193
 H         -3.3277170498        0.8520151741       -0.6516081933
 H         -0.8600783130        0.9519825615       -0.9298332580
 H         -1.4709388053       -0.6567986232       -1.3386631961
 H         -0.1869474084        0.1615930759        1.3104983667
 H         -0.8278641349       -1.4690882828        0.9400496990
 H          2.6682515379       -0.5208068987       -0.6689561111
  14
  -20.7761973500000       6.219168217100539E-002 !gc
 C         -2.6749189746        0.4118668025        0.0970542213
 C         -1.3303982766        0.0554589298       -0.5224706453
 C         -0.3954258158       -0.5609155958        0.5148907144
 O          0.8434782696       -0.9718320012       -0.0757632446
 C          1.7858779765       -0.0566167997       -0.1951525925
 O          1.7311666050        1.0862267271        0.1510092788
 H         -3.3279492779        0.8517052401       -0.6517920856
 H         -3.1595388259       -0.4750067055        0.4990052099
 H         -2.5445759574        1.1290797541        0.9037569810
 H         -0.8600822004        0.9527646661       -0.9289551207
 H         -1.4703103997       -0.6559750313       -1.3388872621
 H         -0.1867525586        0.1615955472        1.3106505524
 H         -0.8279673708       -1.4689521629        0.9400495511
 H          2.6682485167       -0.5211213650       -0.6689298336
  14
  -20.7761973500000       6.219168217100539E-002 !gc
 C         -2.6735307380        0.4089073447       -0.1372836834
 C         -1.3363070550        0.0692990093        0.5069824579
 C         -0.3901132775       -0.5753017427       -0.5026491624
 O          0.8425143033       -0.9689289617        0.1124848097
 C          1.7837330233       -0.0506890931        0.2154732365
 O          1.7330955826        1.0817136355       -0.1639544597
 H         -2.5337729606        1.1047772675       -0.9609028440
 H         -3.1533553402       -0.4883821181       -0.5215326812
 H         -3.3352461552        0.8679606146        0.5921405529
 H         -1.4857607155       -0.6194844993        1.3409850689
 H         -0.8701954013        0.9773446201        0.8940320244
 H         -0.8178315459       -1.4950948161       -0.9068857085
 H         -0.1730550027        0.1248469530       -1.3159545308
 H          2.6610934561       -0.5011849079        0.7117341350
  14
  -20.7761973400000       6.219102406526040E-002 !gc
 C         -2.6734905203        0.4089475639       -0.1371238299
 C         -1.3361951605        0.0691449349        0.5069179364
 C         -0.3900273164       -0.5752098131       -0.5028777604
 O          0.8424318986       -0.9688934144        0.1124195948
 C          1.7835747370       -0.0506059190        0.2157837858
 O          1.7331137202        1.0816233482       -0.1640806841
 H         -3.3353652792        0.8672462536        0.5926316390
 H         -2.5340367270        1.1054695733       -0.9601703606
 H         -3.1530746063       -0.4880938993       -0.5219851081
 H         -1.4855677648       -0.6199663109        1.3406508306
 H         -0.8700360197        0.9770407251        0.8943322873
 H         -0.8177656772       -1.4948817742       -0.9073866183
 H         -0.1728685746        0.1251078057       -1.3160080838
 H          2.6606603476       -0.5010002049        0.7124776779
  14
  -20.7761973400000       6.219102406526040E-002 !mtd9
 C         -2.6727900745        0.4095819654       -0.1372607085
 C         -1.3356455772        0.0695134235        0.5069298052
 C         -0.3901069834       -0.5763761170       -0.5024926567
 O          0.8427173237       -0.9692470257        0.1126261618
 C          1.7832929734       -0.0503422783        0.2155826295
 O          1.7319752669        1.0818655109       -0.1643186371
 H         -3.1538695560       -0.4877439615       -0.5197594525
 H         -3.3336014088        0.8704972664        0.5917965936
 H         -2.5328420506        1.1039997934       -0.9620734322
 H         -1.4853706051       -0.6185971422        1.3414239122
 H         -0.8687954007        0.9774695329        0.8932588677
 H         -0.8181128624       -1.4966520459       -0.9053247606
 H         -0.1734125652        0.1226989788       -1.3168444540
 H          2.6609018113       -0.5001755111        0.7118608583
  14
  -20.7761972200000       6.218312734019313E-002 !mtd1
 C         -2.6762454717        0.4100621166        0.0967315862
 C         -1.3310112114        0.0558852322       -0.5223866593
 C         -0.3954283742       -0.5591296250        0.5152599940
 O          0.8429334179       -0.9710274074       -0.0759145294
 C          1.7861317600       -0.0570377909       -0.1956689261
 O          1.7333312816        1.0855369693        0.1515598253
 H         -2.5473942393        1.1270980039        0.9037680176
 H         -3.3296612997        0.8492205958       -0.6521276882
 H         -3.1596675395       -0.4776759393        0.4980550935
 H         -0.8620182000        0.9539321327       -0.9287755826
 H         -1.4695965351       -0.6557688710       -1.3388209534
 H         -0.1860265969        0.1643525677        1.3099523614
 H         -0.8277260265       -1.4666154828        0.9418145150
 H          2.6675673893       -0.5221162390       -0.6707092813
  14
  -20.7760612800000       5.385163103164533E-002 !gc
 C         -2.3078741645       -0.0777013372       -0.6840284678
 C         -1.3976708274        0.5102581411        0.3870008105
 C         -0.3368018355       -0.4888906007        0.8424396051
 O          0.5472955818       -0.8421126168       -0.2287545828
 C          1.5730813646       -0.0437684385       -0.4483735287
 O          1.8652701470        0.9427842287        0.1605129290
 H         -1.7232215972       -0.4020249350       -1.5414955095
 H         -2.8503666643       -0.9359840727       -0.2938230862
 H         -3.0286789569        0.6644574935       -1.0171841523
 H         -1.9843315174        0.8019662665        1.2595033147
 H         -0.8960636597        1.4009067412        0.0039674647
 H          0.2549623838       -0.0648821695        1.6600314894
 H         -0.7945547003       -1.4287101788        1.1573574726
 H          2.1510803422       -0.4408858461       -1.3014822403
  14
  -20.7760612700000       5.385106117943163E-002 !mtd2
 C         -2.3083470313       -0.0791619833       -0.6839277225
 C         -1.3986100869        0.5104951517        0.3865799016
 C         -0.3368039723       -0.4874281827        0.8425603377
 O          0.5466979898       -0.8412975490       -0.2288649993
 C          1.5734837873       -0.0440024783       -0.4483655511
 O          1.8668184530        0.9420395481        0.1607904936
 H         -2.8510316736       -0.9368120174       -0.2925760076
 H         -3.0289742282        0.6624895301       -1.0186093366
 H         -1.7232527883       -0.4048907348       -1.5405867491
 H         -1.9854132468        0.8023449847        1.2589460978
 H         -0.8978000394        1.4012721573        0.0027784554
 H          0.2552537923       -0.0620216702        1.6592177134
 H         -0.7937947087       -1.4271226913        1.1589905259
 H          2.1508048497       -0.4415901057       -1.3016577311
  14
  -20.7760612700000       5.385106117943163E-002 !mtd9
 C         -2.3391623840        0.1366796616        0.5568063284
 C         -1.3730570170        0.3387446892       -0.6039027561
 C         -0.2992265905       -0.7458753841       -0.6450451197
 O          0.5280440992       -0.7115603420        0.5246410619
 C          1.5489397911        0.1225235217        0.5135250698
 O          1.8792346578        0.8498869315       -0.3760951372
 H         -1.7997362663        0.1246017659        1.5008776726
 H         -3.0696074694        0.9410476141        0.5856503715
 H         -2.8686459628       -0.8077015691        0.4518836598
 H         -0.8835688466        1.3106977267       -0.5183919292
 H         -1.9139928882        0.3152038076       -1.5512137471
 H         -0.7486639799       -1.7408535004       -0.6485995311
 H          0.3355153675       -0.6154675247       -1.5274063709
 H          2.0809018803        0.0395070061        1.4777295340
  14
  -20.7760612600000       5.385049133324805E-002 !md5
 C         -2.3384952168        0.1367943127        0.5570204571
 C         -1.3730888624        0.3385457632       -0.6042563577
 C         -0.2992329070       -0.7460365421       -0.6450958942
 O          0.5279126445       -0.7113641077        0.5247088424
 C          1.5485760227        0.1227798460        0.5136940663
 O          1.8790817247        0.8496639350       -0.3761763330
 H         -2.8684772472       -0.8073208625        0.4523586528
 H         -1.7984718229        0.1245164276        1.5006730711
 H         -3.0684562266        0.9415356664        0.5863045525
 H         -0.8837019732        1.3106031303       -0.5194127004
 H         -1.9144776877        0.3144526900       -1.5512702547
 H         -0.7485214167       -1.7410859390       -0.6485352763
 H          0.3356020793       -0.6156601095       -1.5273685542
 H          2.0800597095        0.0402893549        1.4782463664
  14
  -20.7760612400000       5.384935165917340E-002 !mtd8
 C         -2.3409433626        0.1343934973        0.5562988582
 C         -1.3739901525        0.3396981732       -0.6030460888
 C         -0.2992283688       -0.7439763616       -0.6454322952
 O          0.5275639410       -0.7103432106        0.5246116718
 C          1.5496785681        0.1222507857        0.5137061108
 O          1.8816254316        0.8485012788       -0.3761544448
 H         -3.0717473198        0.9384329906        0.5865947421
 H         -2.8699116616       -0.8099358089        0.4483685086
 H         -1.8021177754        0.1201033765        1.5006334453
 H         -0.8855331004        1.3119541919       -0.5149662681
 H         -1.9141579043        0.3177077019       -1.5508202679
 H         -0.7476847788       -1.7394057780       -0.6506268855
 H          0.3357746967       -0.6116764355       -1.5272944679
 H          2.0808115759        0.0390313315        1.4783439845
  14
  -20.7760612300000       5.384878183107977E-002 !mtd7
 C         -2.3095134349       -0.0795254330       -0.6833566884
 C         -1.3986764110        0.5107324143        0.3859056872
 C         -0.3368426824       -0.4869501694        0.8423442750
 O          0.5469494741       -0.8412344667       -0.2287908210
 C          1.5739979457       -0.0443401130       -0.4480917798
 O          1.8673123586        0.9419716694        0.1607040279
 H         -3.0305627492        0.6618720712       -1.0177268215
 H         -1.7253482493       -0.4056332218       -1.5404298219
 H         -2.8517751414       -0.9371005513       -0.2911193691
 H         -1.9848038263        0.8035294627        1.2583979743
 H         -0.8978733624        1.4010468796        0.0010107442
 H          0.2551469732       -0.0611899503        1.6588517668
 H         -0.7938016642       -1.4265802013        1.1589994316
 H          2.1520020515       -0.4423680152       -1.3007440062
  14
  -20.7757905200000       4.043581314553845E-002 !gc
 C         -1.8351099220        0.8496182437       -0.4544687771
 C         -1.7067191630       -0.5583471897        0.1140340439
 C         -0.3219577873       -0.8156464693        0.7032487868
 O          0.6724643845       -0.8320891641       -0.3284170242
 C          1.5237307254        0.1726923960       -0.3829540159
 O          1.5934360182        1.1103607055        0.3553464726
 H         -1.1273771867        1.0015738115       -1.2665191649
 H         -2.8381160594        1.0104848911       -0.8414430511
 H         -1.6359606446        1.5918529443        0.3151121284
 H         -1.8966782660       -1.2936061518       -0.6699649231
 H         -2.4404400611       -0.7071335642        0.9078904712
 H         -0.0604370886       -0.0399106674        1.4299132825
 H         -0.2826352951       -1.7990985749        1.1790701543
 H          2.1988660303        0.0095123233       -1.2415317916
  14
  -20.7757905200000       4.043581314553845E-002 !mtd5
 C         -1.8363192491        0.8490438149       -0.4546892594
 C         -1.7069039346       -0.5586387184        0.1142526491
 C         -0.3219183832       -0.8148806591        0.7034163735
 O          0.6721031969       -0.8315478974       -0.3286466628
 C          1.5240107159        0.1727014801       -0.3831577999
 O          1.5948444510        1.1099215858        0.3556408463
 H         -1.6378922900        1.5916362160        0.3147535203
 H         -1.1284588567        1.0012112748       -1.2665945904
 H         -2.8393613737        1.0090675095       -0.8419691634
 H         -1.8963823191       -1.2942520029       -0.6695345876
 H         -2.4405359661       -0.7076447571        0.9081502053
 H         -0.0604947214       -0.0384603661        1.4293779331
 H         -0.2819589939       -1.7979310986        1.1800268839
 H          2.1984890788        0.0095119421       -1.2422569723
  14
  -20.7757905100000       4.043538525807818E-002 !mtd6
 C         -1.8647325205        0.7972919946        0.4311765789
 C         -1.6937490833       -0.5348812977       -0.2886235889
 C         -0.2727977567       -0.7258499787       -0.8133513321
 O          0.6530092554       -0.8672500330        0.2713133830
 C          1.4954910215        0.1206133601        0.4982000421
 O          1.6094764582        1.1382503341       -0.1188340850
 H         -1.6202516994        1.6238406427       -0.2320494072
 H         -2.8911621168        0.9146969906        0.7692836053
 H         -1.2110574622        0.8512300857        1.2990457237
 H         -2.3742074621       -0.5875021635       -1.1400479651
 H         -1.9304931950       -1.3562068207        0.3901429058
 H         -0.1987824149       -1.6465404155       -1.3981506417
 H          0.0319456380        0.1291658522       -1.4251327682
 H          2.1145760443       -0.1451342879        1.3732820981
  14
  -20.7757905000000       4.043495737514576E-002 !mtd6
 C         -1.8640732932        0.7969823544        0.4317444222
 C         -1.6937663385       -0.5344154534       -0.2896215073
 C         -0.2725551488       -0.7260455864       -0.8134017775
 O          0.6526242770       -0.8671361207        0.2717344112
 C          1.4952010519        0.1207492807        0.4984369280
 O          1.6092748279        1.1380663427       -0.1190383318
 H         -1.2135271125        0.8475885519        1.3021439765
 H         -1.6148567921        1.6240266182       -0.2291045693
 H         -2.8914612903        0.9164790831        0.7661810076
 H         -2.3734031774       -0.5850833644       -1.1418022648
 H         -1.9320807303       -1.3564106825        0.3877915978
 H         -0.1985176695       -1.6470049999       -1.3977708510
 H          0.0327552704        0.1285733087       -1.4254652423
 H          2.1138847704       -0.1446563743        1.3738620668
  14
  -20.7757904900000       4.043452949674115E-002 !mtd2
 C         -1.8664276891        0.7958757895        0.4321742847
 C         -1.6941433379       -0.5348720087       -0.2899858582
 C         -0.2726690048       -0.7242348181       -0.8137784191
 O          0.6523293089       -0.8664868918        0.2715263759
 C          1.4960196142        0.1202514284        0.4984617528
 O          1.6115562226        1.1376512191       -0.1185968297
 H         -2.8935923122        0.9128029907        0.7682438025
 H         -1.2145578465        0.8479541834        1.3014709988
 H         -1.6203962244        1.6238152983       -0.2288956700
 H         -2.3737151079       -0.5860357393       -1.1421920159
 H         -1.9311914790       -1.3576417550        0.3869218130
 H         -0.1975729740       -1.6440159178       -1.3998588095
 H          0.0320742027        0.1318361614       -1.4240538535
 H          2.1143642450       -0.1459376199        1.3739052633
  14
  -20.7757904900000       4.043452949674115E-002 !mtd2
 C         -1.8353135507        0.8498148144       -0.4540057505
 C         -1.7066445157       -0.5584643505        0.1134946774
 C         -0.3221020486       -0.8157171524        0.7031037434
 O          0.6726927977       -0.8321967660       -0.3282960003
 C          1.5237895253        0.1726642746       -0.3828096482
 O          1.5934092703        1.1104933117        0.3553104025
 H         -2.8385992796        1.0108724337       -0.8400900647
 H         -1.6354984386        1.5916879409        0.3158076694
 H         -1.1281087365        1.0019565890       -1.2665687843
 H         -1.8959052591       -1.2931789473       -0.6711577688
 H         -2.4407899135       -0.7082558372        0.9067478720
 H         -0.0606573975       -0.0399969207        1.4298041081
 H         -0.2828929731       -1.7991461245        1.1788892403
 H          2.1990276759        0.0095700843       -1.2413359394
  14
  -20.7751256900000       2.000928027780154E-002 !gc
 C         -2.4434759346        0.2675845350       -0.6367643689
 C         -1.7480222720       -0.5725271167        0.4273555032
 C         -0.3275952858       -0.0924340457        0.6870018070
 O          0.4632998572       -0.3356491671       -0.4847271295
 C          1.7159522697        0.0682254903       -0.4421857310
 O          2.2605734413        0.6165458433        0.4703448125
 H         -1.8793929953        0.2365750525       -1.5650703015
 H         -3.4436481495       -0.1132745265       -0.8257526826
 H         -2.5237188223        1.3030406515       -0.3137239286
 H         -1.7103312860       -1.6146957440        0.1069911185
 H         -2.3016698208       -0.5217963303        1.3661659084
 H         -0.3045768724        0.9800451429        0.9094502688
 H          0.1259353112       -0.6261602047        1.5294729958
 H          2.2032829546       -0.1802396214       -1.4011712016
  14
  -20.7751081000000       1.964027947204277E-002 !gc
 C         -2.5160186204        0.0192395136       -0.6658549228
 C         -1.7180722043       -0.4681596196        0.5372296770
 C         -0.3506921856        0.1959712522        0.6147140363
 O          0.4374440934       -0.2301584481       -0.5054553475
 C          1.7363911646       -0.0280713373       -0.4294667363
 O          2.3328686129        0.4771894929        0.4754472924
 H         -1.9674939457       -0.1795044488       -1.5825173136
 H         -3.4746347555       -0.4904598648       -0.7165008702
 H         -2.6972310320        1.0893460553       -0.5952374111
 H         -1.5793109966       -1.5484476684        0.4732928113
 H         -2.2568411520       -0.2462249023        1.4597671622
 H         -0.4422515992        1.2871127748        0.5788025511
 H          0.1765504416       -0.0754585469        1.5356423547
 H          2.2091596074       -0.4088556912       -1.3516584691
  14
  -20.7751071500000       1.962054531262221E-002 !gc
 C         -2.5134618559        0.0267297092       -0.6663560879
 C         -1.7192617685       -0.4725263697        0.5343448726
 C         -0.3499223305        0.1865877173        0.6190813342
 O          0.4371297706       -0.2302019147       -0.5053445583
 C          1.7354268508       -0.0234822502       -0.4309883913
 O          2.3319216516        0.4784863655        0.4757408621
 H         -3.4740005517       -0.4787841929       -0.7220374917
 H         -2.6905087321        1.0970230731       -0.5883363191
 H         -1.9643724684       -0.1676311933       -1.5836261966
 H         -1.5840411514       -1.5527577616        0.4623795612
 H         -2.2587716911       -0.2557782747        1.4576851865
 H         -0.4380978682        1.2783498298        0.5948237463
 H          0.1761677888       -0.0961201869        1.5372708348
 H          2.2076174665       -0.3967770537       -1.3565483032
  14
  -20.7722508400000       9.550846915186684E-004 !gc
 C         -2.6402810744        0.5420021021       -0.2406608520
 C         -1.7071475766       -0.6465286295       -0.0412966217
 C         -0.3490676440       -0.2319945732        0.5317255211
 O          0.6850656913       -0.6380417651       -0.3771409044
 C          1.8317124845        0.0070559835       -0.3100627058
 O          2.1112291114        0.9017498799        0.4325259179
 H         -3.5845235120        0.2111392364       -0.6658192406
 H         -2.8444833132        1.0310233484        0.7090556037
 H         -2.1961431758        1.2693543025       -0.9159007640
 H         -1.5267556516       -1.1349605547       -1.0000880018
 H         -2.1808262060       -1.3749132022        0.6172076566
 H         -0.2820913905        0.8528334705        0.6652830256
 H         -0.1511294647       -0.7051756186        1.4985500468
 H          2.5168002991       -0.4092137626       -1.0689469656
  14
  -20.7722160100000       9.205240177825963E-004 !gc
 C         -2.8414820680        0.1149267474       -0.3547784530
 C         -1.6586110657       -0.4999118716        0.3833910256
 C         -0.3728107410        0.3128602538        0.2067586167
 O          0.6224979272       -0.5165006176       -0.4114606405
 C          1.8840298275       -0.1890584005       -0.2210122404
 O          2.3000681878        0.7352771394        0.4134761446
 H         -3.7291965240       -0.4972008462       -0.2171252165
 H         -3.0516269747        1.1128444332        0.0232371031
 H         -2.6335583964        0.1835216036       -1.4196889541
 H         -1.4715899930       -1.5033778303       -0.0019752635
 H         -1.8975513391       -0.5892084037        1.4435938258
 H         -0.5405506308        1.1780179579       -0.4431763680
 H          0.0270275198        0.6755066444        1.1587552996
 H          2.5222292734       -0.9204774211       -0.7467280664
