! pbe def2-sv(p) def2/J RI DEFGRID1 loosescf d4 GCP(DFT/SV(P)) printgap
%output
    printlevel normal
end
* xyz 0 1
C 2.2579435249 -0.2499383528 0.1337080972
O 0.9524459481 -0.2272810007 -0.3977288336
C 0.0889041315 0.6516778218 0.2915921133
C -1.3212783595 0.5310371348 -0.2831053554
N -1.9819296774 -0.6723736139 0.1973569619
H 2.8225746147 -0.9505625254 -0.4757858778
H 2.2516803939 -0.5867863409 1.1764443671
H 2.7191837068 0.7433984866 0.0825037596
H 0.0805966581 0.4035263294 1.3635398881
H 0.4496616444 1.6860419886 0.1783202684
H -1.8686624407 1.4562659756 -0.0351255405
H -1.2360871262 0.4577117723 -1.3693650421
H -2.8893251052 -0.7637657602 -0.2435230521
H -2.1273382188 -0.6096456319 1.1993310958
*
