! pbe def2-sv(p) def2/J RI DEFGRID1 loosescf d4 GCP(DFT/SV(P)) printgap
%output
    printlevel normal
end
* xyz 0 1
C 0.0419227224 -3.1283254087 0.0548737689
C 0.67062644 -1.7734277257 -0.0133467484
C 2.0554347754 -1.5745543251 0.0749852598
N 2.6014116967 -0.3705700256 0.0309880969
C 1.7907939042 0.6865849079 -0.1229134604
N 0.4531018322 0.6010528249 -0.2444158902
C -0.0692269212 -0.604457008 -0.1659667786
O -1.4401497496 -0.6917881536 -0.3093520952
C -2.2153726637 0.2024312845 0.3840977362
O -1.8231154271 0.7636723868 1.3935097921
N -3.4358162464 0.3294020572 -0.1382640757
C -4.4290814981 1.1350939695 0.5403136657
C -3.8870455921 -0.3534630455 -1.3312182627
N 2.3265771761 1.9101104449 -0.186866761
C 3.7371039892 2.1346454217 0.0191314561
C 1.4586635652 3.0618612958 -0.2872849978
C 2.9884460939 -2.72915832 0.2369918699
H 0.3286987797 -3.6336701529 0.9757243434
H -1.0402155516 -3.0370899902 0.0233100893
H 0.3683202359 -3.7410614892 -0.7841569123
H -4.7646868065 1.9360296565 -0.1181268385
H -3.9780423141 1.561823258 1.4327370525
H -5.280250851 0.51376377 0.8195816942
H -4.4065674751 0.3611033695 -1.9685633393
H -4.5723397556 -1.1600626165 -1.0651605595
H -3.0372316577 -0.7661401458 -1.8660111332
H 3.9012797485 2.6839615843 0.9481807673
H 4.1428497664 2.7078643768 -0.8149212717
H 4.2320110011 1.1699641781 0.0763151459
H 0.8201415524 3.1420522362 0.5954561966
H 0.8104255467 2.9625423221 -1.1574263376
H 2.0713454086 3.9527166761 -0.3829621809
H 2.8710547178 -3.4214612543 -0.5935144538
H 4.0101708633 -2.3662359145 0.2703858639
H 2.7617176266 -3.2639467614 1.1568332949
*
