  11
        -18.68703081
 C         -1.4226499915       -1.0045920462       -0.0002843717
 S         -0.0000060264        0.1216901792        0.0000112914
 O         -0.0001518625        0.8599840470        1.2312354428
 O          0.0001612351        0.8603940311       -1.2309806433
 C          1.4226528862       -1.0046010958       -0.0000042209
 H         -2.3202970513       -0.3989016311       -0.0000463423
 H         -1.3783706215       -1.6095396606       -0.8959859334
 H         -1.3782688095       -1.6099851687        0.8951037243
 H          2.3202937503       -0.3988518147        0.0003445850
 H          1.3781468023       -1.6100365629        0.8953783742
 H          1.3785043437       -1.6094996668       -0.8957591434
