  11
  -18.6870308100000       9.877329554376049E-002 !gc
 C         -1.4226499915       -1.0045920462       -0.0002843717
 S         -0.0000060264        0.1216901792        0.0000112914
 O         -0.0001518625        0.8599840470        1.2312354428
 O          0.0001612351        0.8603940311       -1.2309806433
 C          1.4226528862       -1.0046010958       -0.0000042209
 H         -2.3202970513       -0.3989016311       -0.0000463423
 H         -1.3783706215       -1.6095396606       -0.8959859334
 H         -1.3782688095       -1.6099851687        0.8951037243
 H          2.3202937503       -0.3988518147        0.0003445850
 H          1.3781468023       -1.6100365629        0.8953783742
 H          1.3785043437       -1.6094996668       -0.8957591434
  11
  -18.6870308000000       9.877225033528600E-002 !mtd12
 C         -1.4226250549       -1.0046341103       -0.0003696516
 S         -0.0000031449        0.1216743130        0.0000122245
 O         -0.0000572018        0.8600366047        1.2312158982
 O          0.0000679189        0.8604380361       -1.2309580464
 C          1.4226140640       -1.0046325484        0.0000731577
 H         -1.3779362404       -1.6097815938       -0.8959845238
 H         -1.3785193964       -1.6098004676        0.8952567705
 H         -2.3202818350       -0.3988450771       -0.0006846861
 H          1.3785357602       -1.6096960410       -0.8955773683
 H          2.3202871485       -0.3989007315        0.0004874377
 H          1.3779754518       -1.6099426564        0.8955536643
  11
  -18.6870307900000       9.877120513824310E-002 !mtd5
 C         -1.4226368307       -1.0046278372       -0.0003972487
 S         -0.0000011764        0.1216822826        0.0001169652
 O         -0.0001496667        0.8601337977        1.2312174604
 O          0.0001522063        0.8603306299       -1.2309221470
 C          1.4226318428       -1.0046352472       -0.0001073957
 H         -1.3773130817       -1.6103959240       -0.8955174555
 H         -1.3791744252       -1.6092078371        0.8956058202
 H         -2.3203056718       -0.3989622414       -0.0017660386
 H          2.3203548680       -0.3989459327        0.0008703793
 H          1.3778510505       -1.6107514622        0.8947836418
 H          1.3786438053       -1.6088371458       -0.8963708878
  11
  -18.6870307900000       9.877120513824310E-002 !mtd6
 C         -1.4225525485       -1.0046811704       -0.0002255869
 S         -0.0000038268        0.1217383340       -0.0000317722
 O         -0.0001811023        0.8599936637        1.2312488622
 O          0.0001989700        0.8604485491       -1.2309836374
 C          1.4225356650       -1.0046711371       -0.0000034103
 H         -2.3202867764       -0.3989950577        0.0011265014
 H         -1.3788044124       -1.6089404613       -0.8965205980
 H         -1.3774098594       -1.6107977807        0.8947394497
 H          1.3780794733       -1.6100237497       -0.8954829146
 H          2.3202574051       -0.3989878305       -0.0000694331
 H          1.3782034603       -1.6097226878        0.8957363761
  11
  -18.6870307700000       9.876911477659503E-002 !mtd6
 C         -1.4226093585       -1.0046294428       -0.0004119126
 S          0.0000005309        0.1216710471        0.0000483711
 O         -0.0000562250        0.8600836965        1.2312170012
 O          0.0000605532        0.8604077052       -1.2309427802
 C          1.4226103996       -1.0046396996        0.0000381110
 H         -1.3769762848       -1.6121304959        0.8935531703
 H         -2.3202718686       -0.3988906454        0.0025201352
 H         -1.3796820996       -1.6075347264       -0.8976358241
 H          1.3785709990       -1.6094534878       -0.8958405791
 H          2.3202951485       -0.3989019419        0.0005945768
 H          1.3779661060       -1.6101878541        0.8953714548
  11
  -18.6870307700000       9.876911477659503E-002 !mtd6
 C         -1.4226441793       -1.0045422655       -0.0003734212
 S         -0.0000108244        0.1217542371        0.0000499902
 O         -0.0000606784        0.8598774137        1.2313632048
 O          0.0000805220        0.8602886121       -1.2311486299
 C          1.4226558934       -1.0045513056        0.0000555154
 H         -1.3787941274       -1.6093540304        0.8955155434
 H         -2.3203732239       -0.3988577247       -0.0012723282
 H         -1.3776677270       -1.6100290982       -0.8957186479
 H          1.3785812624       -1.6091314906        0.8960483722
 H          1.3777456472       -1.6103921670       -0.8949735704
 H          2.3203978873       -0.3989080464       -0.0008072159
  11
  -18.6870307600000       9.876806961236094E-002 !mtd1
 C         -1.4225758771       -1.0046632716       -0.0003955259
 S         -0.0000074281        0.1216795434       -0.0000105880
 O          0.0000066372        0.8600436766        1.2312055865
 O         -0.0000014901        0.8605142109       -1.2309698893
 C          1.4225769455       -1.0046739344        0.0001625810
 H         -2.3203284471       -0.3990134621       -0.0028054240
 H         -1.3766891616       -1.6111353647       -0.8950255275
 H         -1.3795564258       -1.6086781816        0.8961578778
 H          1.3765873573       -1.6114552522        0.8945571895
 H          1.3797930600       -1.6082754179       -0.8965101631
 H          2.3203354601       -0.3990560184        0.0029973545
  11
  -18.6870307400000       9.876597931744344E-002 !mtd8
 C         -1.4226397573       -1.0046762357       -0.0002890913
 S         -0.0000275707        0.1216869865       -0.0000417146
 O         -0.0000614053        0.8599799426        1.2311687486
 O          0.0001599905        0.8604517396       -1.2309139279
 C          1.4225906882       -1.0045961439        0.0000704057
 H         -1.3773544213       -1.6109413763       -0.8950209474
 H         -1.3792821334       -1.6085482188        0.8961624217
 H         -2.3202823024       -0.3989182064       -0.0019415247
 H          1.3761142499       -1.6123333746        0.8938551255
 H          1.3805500827       -1.6072346439       -0.8973631801
 H          2.3201513215       -0.3986437756        0.0041960153
  11
  -18.6870307300000       9.876493418638845E-002 !mtd13
 C         -1.4226258419       -1.0045163574       -0.0006366285
 S          0.0000324189        0.1217419388        0.0001399966
 O          0.0000561251        0.8600101782        1.2313992286
 O         -0.0001126567        0.8601356518       -1.2310872461
 C          1.4226261043       -1.0045608520        0.0000605420
 H         -1.3795148472       -1.6096680981        0.8950623471
 H         -2.3203184617       -0.3986034937       -0.0019741856
 H         -1.3773123935       -1.6096614503       -0.8961821597
 H          2.3203521544       -0.3988473316        0.0001151452
 H          1.3784060764       -1.6094742319        0.8958099429
 H          1.3782505232       -1.6099011500       -0.8953714714
  11
  -18.6856210000000       2.221957396932515E-002 !md2
 C         -1.4315895521       -0.9970124669       -0.0002977588
 S          0.0000023627        0.1190280616       -0.0000065238
 O         -0.0023166619        0.8584519852        1.2309586077
 O         -0.0020989190        0.8589042875       -1.2307000285
 C          1.4366344768       -1.0032420958        0.0000661980
 H         -1.3926425671       -1.6010370372       -0.8971385395
 H         -1.3926812278       -1.6013219013        0.8963545202
 H         -2.3233729401       -0.3824042648       -0.0003522229
 H          2.0112578587       -0.8063204797        0.8955820799
 H          1.0857284767       -2.0266719252       -0.0099152048
 H          2.0216085108       -0.7929320094       -0.8856683254
  11
  -18.6856209600000       2.221863348369317E-002 !md4
 C         -1.4315600715       -0.9970248357       -0.0004148934
 S         -0.0000050321        0.1190383428        0.0001147685
 O         -0.0023455224        0.8585862444        1.2310294498
 O         -0.0020396519        0.8587372026       -1.2307142281
 C          1.4365730488       -1.0032143164       -0.0001271919
 H         -1.3931488781       -1.6011031130        0.8964789387
 H         -2.3233314629       -0.3824588699       -0.0011225024
 H         -1.3919167672       -1.6013280470       -0.8971094253
 H          1.0856573287       -2.0266698899        0.0087498984
 H          2.0115868954       -0.8054748883       -0.8952411825
 H          2.0211842544       -0.7936424119        0.8860497617
  11
  -18.6856207200000       2.221299140572345E-002 !mtd12
 C         -1.4316239398       -0.9970327851       -0.0001689271
 S         -0.0000128403        0.1189265032       -0.0000296460
 O         -0.0024458409        0.8585614700        1.2308490972
 O         -0.0019523869        0.8590390457       -1.2306006189
 C          1.4366830918       -1.0032628482       -0.0000435750
 H         -1.3917398017       -1.6023501737        0.8958076424
 H         -2.3233546045       -0.3824735033        0.0016527323
 H         -1.3937070545       -1.6000917923       -0.8977103651
 H          2.0177668093       -0.7978940744       -0.8894838671
 H          2.0152367421       -0.8013182944        0.8918281007
 H          1.0857345990       -2.0267170204       -0.0025632292
  11
  -18.6856206900000       2.221228624675403E-002 !mtd4
 C         -1.4316149453       -0.9970418050       -0.0002813553
 S         -0.0000084529        0.1189045304        0.0000055694
 O         -0.0023620343        0.8586280159        1.2308047116
 O         -0.0020504981        0.8590376370       -1.2305420369
 C          1.4366628567       -1.0032727204        0.0000014074
 H         -1.3937563773       -1.5999749651        0.8973353141
 H         -2.3233475368       -0.3824782245       -0.0023235394
 H         -1.3914457600       -1.6024671513       -0.8961216424
 H          2.0167104070       -0.7992774822        0.8904473308
 H          1.0857291156       -2.0267418799        0.0005431724
 H          2.0162683094       -0.8000150824       -0.8908913873
  11
  -18.6856206500000       2.221134606958873E-002 !mtd5
 C         -1.4318305643       -0.9966535345       -0.0003818798
 S          0.0000252098        0.1189574666        0.0000037710
 O         -0.0023012349        0.8582410327        1.2310729120
 O         -0.0022017560        0.8586366762       -1.2308097456
 C          1.4369188201       -1.0029651690        0.0000844825
 H         -2.3234039086       -0.3817720121       -0.0014660514
 H         -1.3923012795       -1.6014771550       -0.8968024139
 H         -1.3934928960       -1.6000716053        0.8969970772
 H          1.0859068087       -2.0263665917       -0.0003611415
 H          2.0170608639       -0.7990304044       -0.8902820654
 H          2.0162729606       -0.7997050386        0.8911611823
