  22
        -23.41228461
 C         -3.8230049392       -0.3500676552        0.0011869653
 C         -2.5580366568        0.4994435502       -0.0007453746
 C         -1.2959804010       -0.3597309365       -0.0004156733
 C         -0.0247080337        0.4860258332        0.0003935146
 C          1.2367319286       -0.3723756551       -0.0019414448
 C          2.5136484689        0.4793094064        0.0002688244
 N          3.7524362823       -0.2780636122        0.0011258754
 H         -4.7087443683        0.2809240764       -0.0004132346
 H         -3.8550185815       -0.9886760216       -0.8789828355
 H         -3.8551856323       -0.9844695613        0.8843940130
 H         -2.5535752101        1.1459785156        0.8798398941
 H         -2.5546943566        1.1436389270       -0.8830692580
 H         -1.3009484095       -1.0057134234        0.8810258052
 H         -1.3001619932       -1.0052644518       -0.8821889806
 H         -0.0193122526        1.1302331995        0.8828872911
 H         -0.0203405970        1.1335965130       -0.8796407581
 H          1.2369372465       -1.0206314402        0.8794981834
 H          1.2368077094       -1.0160944230       -0.8866800054
 H          2.5216339938        1.1222220696        0.8850420588
 H          2.5237342844        1.1237840133       -0.8833100842
 H          3.7933790348       -0.8783938229        0.8187189130
 H          3.7958712815       -0.8763515215       -0.8178331301
