  20
        -19.99729122
 C         -2.1687267433        0.0067726847        0.0000343162
 C         -0.8772283927        0.8175064574       -0.0009712030
 C          0.4264599982       -0.0016480809       -0.0000123694
 C          1.6009073053        0.9833319135       -0.0027296542
 C          0.5197943898       -0.8826604408       -1.2477166113
 C          0.5212321567       -0.8773378240        1.2513356285
 H         -3.0224589984        0.6815904301        0.0002951409
 H         -2.2393821371       -0.6227353103       -0.8828897481
 H         -2.2383636446       -0.6221357178        0.8834576945
 H         -0.8740779904        1.4664101861        0.8786574191
 H         -0.8742275813        1.4642882980       -0.8821613270
 H          1.5676434642        1.6178482500       -0.8858797794
 H          2.5483973731        0.4488553439       -0.0022130842
 H          1.5687091366        1.6214795565        0.8778418130
 H         -0.2451656470       -1.6545331820       -1.2403039317
 H          0.4002125850       -0.2847145333       -2.1487211436
 H          1.4904658390       -1.3724035771       -1.2890021369
 H          1.4920617161       -1.3666634281        1.2937947298
 H         -0.2435388388       -1.6494298395        1.2479249837
 H          0.4023257816       -0.2756113447        2.1499131086
  20
        -19.99328847
 C         -1.9297524550        0.7683431041       -0.5944313025
 C         -1.0748613523        0.1562683892        0.5104535054
 C          0.3834214340       -0.1481514989        0.1177684261
 C          1.1653556937        1.1563453031       -0.1357164675
 C          0.4282259416       -1.0382641117       -1.1273126495
 C          1.0320463385       -0.9111707864        1.2791852591
 H         -2.8969306140        1.0619122335       -0.1913883695
 H         -1.4573247093        1.6519022289       -1.0166054089
 H         -2.1027010327        0.0549050646       -1.3957651970
 H         -1.5484784242       -0.7721978186        0.8389115949
 H         -1.0617671878        0.8350875067        1.3670320468
 H          0.5207085094        2.0276181471       -0.0576542805
 H          1.6121357587        1.1595007008       -1.1266856474
 H          1.9662055244        1.2755289107        0.5899713535
 H         -0.1818707536       -1.9278526497       -0.9837133297
 H          0.0641362470       -0.5064596851       -2.0021529960
 H          1.4508152955       -1.3545892384       -1.3233289434
 H          0.9849551587       -0.3265387137        2.1956726405
 H          2.0760798910       -1.1241975061        1.0592246248
 H          0.5211779201       -1.8564466111        1.4512733916
