! r2scan-3c def2/J RI DEFGRID2 scfconv6 printgap
%output
    printlevel normal
end
%cpcm
    smd true
    smdsolvent "water"
end
* xyz 0 1
C -2.1490761469 1.0279834773 0.5439538224
C -1.4711135107 0.0207281432 -0.3766013581
C -0.0673926099 -0.3876297322 0.0957913781
C 0.9689256238 0.7176668697 -0.1395888942
C 2.3201638432 0.366132446 0.4724369626
O 0.3322732668 -1.6017535718 -0.5203444326
H -2.2053941735 0.638214883 1.5574753838
H -1.6051669241 1.9684095605 0.5663531809
H -3.158986122 1.2277569041 0.195322752
H -2.0781115758 -0.8866648077 -0.4215601655
H -1.4039251663 0.4324822208 -1.3866644235
H -0.103126287 -0.6304571248 1.1643016435
H 1.0813354385 0.8694434218 -1.2162212565
H 0.6015528271 1.646508047 0.2957409416
H 2.6550743104 -0.6032866446 0.11066018
H 3.0642385509 1.1143469113 0.2120668612
H 2.2425036408 0.3150580979 1.5559986806
H 0.3842828132 -1.4590820762 -1.4758789045
*
