  39
        -75.06673743
 C         -2.5199108488        0.1202701066        3.0152481067
 C         -2.4230118362       -1.0997326826        2.1057488777
 C         -2.9209072467       -0.7922555531        0.6916677713
 N         -2.0598800822        0.1262622991       -0.0310974506
 C         -2.7449522350        1.1667735095       -0.7750440934
 C         -3.7113986798        0.5854383010       -1.8145427839
 C         -2.9844484854       -0.2386056136       -2.8699719876
 C         -0.7143970950        0.0549009755       -0.0156287494
 C          0.0319639145       -1.1609809638        0.0113278455
 C          1.4185616792       -1.1848508450        0.0338136252
 C          2.1512706719       -0.0133189851       -0.0439598981
 C          1.4766602176        1.1990667146       -0.0831683520
 C          0.0967346641        1.2320397980       -0.0190212706
 N         -0.4509575370        2.5442539956        0.2438806330
 O         -1.3761847654        2.6144334880        1.0260388310
 O          0.0929719593        3.4927643304       -0.2730888376
 C          3.6520907981       -0.0438201058       -0.1086906063
 F          4.0971420598        0.0034172175       -1.3783156497
 F          4.2089759811        0.9974907928        0.5243582584
 F          4.1679908138       -1.1525576463        0.4330532661
 N         -0.5682259209       -2.4617439606       -0.1412718341
 O         -0.0170743567       -3.4017393455        0.3881621580
 O         -1.5535089024       -2.5476106766       -0.8480711032
 H         -2.0988759220       -0.1042085566        3.9914409762
 H         -1.9841476674        0.9676480694        2.5957583226
 H         -3.5590898775        0.4104671080        3.1508330482
 H         -3.0430529922       -1.9035215462        2.5065979046
 H         -1.3939717786       -1.4619686009        2.0948559398
 H         -3.0684504665       -1.7221035897        0.1277187103
 H         -3.8895372807       -0.2979752598        0.7795839124
 H         -2.0113313036        1.7579261737       -1.3264835668
 H         -3.2795607075        1.8309641526       -0.0860307070
 H         -4.4769751867       -0.0253554447       -1.3376163989
 H         -4.2121213402        1.4312602605       -2.2894720551
 H         -3.6868246488       -0.5779576144       -3.6262261524
 H         -2.2174144265        0.3569733197       -3.3610452242
 H         -2.5173993337       -1.1136004432       -2.4264332244
 H          1.9155230540       -2.1438595930        0.0751167360
 H          2.0199828840        2.1332110754       -0.1030077843
