! pbe def2-sv(p) def2/J RI DEFGRID1 loosescf d4 GCP(DFT/SV(P)) printgap
%output
    printlevel normal
end
* xyz 0 1
C -1.1445365184 0.11705693 -0.4616298678
C 0.089870239 0.6287268764 0.3006844143
C 1.3531048331 -0.1531874129 -0.0943171685
O 1.1747489219 -1.5445917561 -0.1197250964
O 0.3664178532 1.9846907401 0.0366247109
O -1.7064161753 -0.9352741444 0.2912765838
H -0.8445592362 -0.2241593786 -1.4583910613
H -1.8658773668 0.9389782166 -0.5706623396
H -0.1109701655 0.4738444887 1.3723163443
H 2.169063684 0.1311551025 0.5836988998
H 1.6345582104 0.1399888012 -1.1089339243
H 0.8172272961 -1.8372225608 0.7306234963
H -0.3307432021 2.5409522549 0.4127701236
H -2.4018637778 -1.3648896621 -0.2241387218
*
