! r2scan-3c def2/J RI DEFGRID2 scfconv6 printgap
%output
    printlevel normal
end
%cpcm
    smd true
    smdsolvent "water"
end
* xyz 0 1
C 1.9422091803 0.4671673291 0.8000554583
C 1.5093244928 -0.3751990122 -0.3947118713
C 0.2438068854 0.1078322019 -1.1100764885
C -1.1011157581 -0.0052653599 -0.3684325033
C -1.3492128922 1.1406158954 0.6120007862
C -1.272120224 -1.3532878158 0.3282925673
H 2.9508041887 0.1918032407 1.1017784404
H 1.9378040911 1.5242577011 0.5446383809
H 1.287505401 0.3135948325 1.6529274638
H 2.3158626072 -0.3575889957 -1.1330577118
H 1.3841221922 -1.412730909 -0.0826660544
H 0.3858484327 1.1500446701 -1.4066514997
H 0.1585226696 -0.4792902425 -2.02898084
H -1.876189563 0.068327297 -1.1425509824
H -2.3731333814 1.0980627336 0.9782235871
H -1.2025334256 2.1009083143 0.1229174867
H -0.6839237767 1.0851030943 1.4673714009
H -1.0763725322 -2.1696210292 -0.3632866575
H -0.5953710366 -1.441799587 1.1741492545
H -2.289899949 -1.4549379294 0.6986049444
*
