! pbe def2-sv(p) def2/J RI DEFGRID1 loosescf d4 GCP(DFT/SV(P)) printgap
%output
    printlevel normal
end
* xyz 0 1
C 2.4899582493 0.7873522475 0.333078243
C 1.2446803061 -0.0895747716 0.2329007388
C 1.4121631597 -1.1359189453 -0.8669237507
C 0.006955494 0.7709448704 -0.0400297382
C -1.2956851274 0.0325185791 0.1415034426
O -1.3974642151 -0.9782953091 0.8091125461
C -2.469984937 0.6522371735 -0.5605982052
H 2.6455288228 1.330169486 -0.5965979278
H 2.3928369838 1.506462893 1.1429166082
H 3.367651924 0.1749964768 0.5233945508
H 1.0918171397 -0.6094974342 1.1850150593
H 1.5499532564 -0.6549256347 -1.8331181791
H 0.534172752 -1.7764796898 -0.9163637581
H 2.2782230948 -1.7618041252 -0.6671170949
H 0.0487845157 1.1940147527 -1.044229014
H -0.0175408789 1.6050867507 0.6671680632
H -2.4640673352 1.730542051 -0.4347060478
H -2.3862176243 0.4348590975 -1.6237238649
H -3.3994378488 0.229923897 -0.1888505915
*
