! r2scan-3c def2/J RI DEFGRID2 scfconv6 printgap
%output
    printlevel normal
end
* xyz 0 1
C 1.9987859638 -1.0924459112 -0.441308491
C 1.18424451 -0.035881995 0.3035603259
C 1.9821977321 1.2585123417 0.4734736538
O -0.004956 0.2396826394 -0.4365384319
C -1.237458909 0.1116670737 0.2594111367
C -2.2784700924 0.8852166707 -0.5445275465
C -1.6473964405 -1.3548715337 0.4181839224
H 2.9164944423 -1.3054636768 0.0986422434
H 1.4230700361 -2.008703697 -0.5431247356
H 2.2424068995 -0.7261565769 -1.4347399157
H 0.913752569 -0.4203902671 1.2969516605
H 2.8891464528 1.0675896869 1.0391918843
H 1.3853691109 2.000425407 0.9987287824
H 2.2438586292 1.6547604948 -0.5038135644
H -1.1355885248 0.5688875954 1.2581264167
H -2.3673518015 0.4491241995 -1.5354973415
H -3.240791142 0.8453348454 -0.0441309555
H -1.9695604726 1.9213402015 -0.6503352988
H -1.7440349315 -1.813878437 -0.562553534
H -2.5987877194 -1.4175150146 0.9378029031
H -0.901986992 -1.9053759314 0.9878214504
*
