! pbe def2-sv(p) def2/J RI DEFGRID1 loosescf d4 GCP(DFT/SV(P)) printgap
%output
    printlevel normal
end
* xyz 0 1
C 1.8762833627 1.2373735281 0.1093135653
C 1.1505117502 -0.1054597105 0.124757401
C 2.1034132428 -1.2243719135 -0.2896832394
C -0.0891689494 -0.0793586914 -0.8092351175
C -1.3483417418 -0.0588411789 0.018354489
O -1.9590983084 -1.0787347439 0.2803236704
C -1.7760375434 1.2846721977 0.5280178505
H 2.7095491211 1.2201602551 0.8076892867
H 2.2667686099 1.4395759889 -0.8852880151
H 1.2130851725 2.0503812792 0.3921836692
H 0.8128805427 -0.3133739743 1.1472559499
H 2.4504134829 -1.069002826 -1.308527875
H 1.6061916339 -2.1898980521 -0.2331522723
H 2.9677705389 -1.2464363916 0.3698050355
H -0.1014379156 -0.9801901095 -1.4231417209
H -0.0466676738 0.7947499399 -1.4558931766
H -2.6480118216 1.1866183908 1.1688224565
H -0.9600496033 1.7421992155 1.0813040812
H -2.0123387407 1.9285099909 -0.3156924954
*
