! pbe def2-sv(p) def2/J RI DEFGRID1 loosescf d4 GCP(DFT/SV(P)) printgap
%output
    printlevel normal
end
* xyz 0 1
C 3.668368982 0.2450804199 1.6563677318
C 3.0576624427 -0.8088511527 0.7261683709
C 3.1812558261 -0.3035533675 -0.6909317828
O 4.2354481038 -0.3665405678 -1.312744227
N 2.1217971985 0.3386506151 -1.2425918213
C 0.8027288663 0.4599838622 -0.784166045
C 0.1947903883 1.713795862 -0.7718876442
C -1.1105601259 1.8542983988 -0.3426487984
C -1.8289546839 0.7447306388 0.076561356
C -1.2361095688 -0.5123740526 0.040523768
C 0.0690436948 -0.6589793307 -0.3964423992
Cl -2.1329223816 -1.9150512606 0.5240167524
Cl -3.4632888176 0.9240649513 0.6246083665
H 3.6707758142 -0.1216273524 2.6786126101
H 3.0915847225 1.1659332646 1.6166094726
H 4.691959088 0.4603933052 1.3585564427
H 2.0241440581 -0.984109086 1.0086383082
H 3.6265640805 -1.7352692462 0.8068558345
H 2.3430025462 0.8440538852 -2.0938916809
H 0.7482702403 2.5809484682 -1.0930822093
H -1.5804916058 2.8233834873 -0.3248357204
H 0.4981707069 -1.6456340705 -0.4567776369
*
