! pbe def2-sv(p) def2/J RI DEFGRID1 loosescf d4 GCP(DFT/SV(P)) printgap
%output
    printlevel normal
end
* xyz 0 1
C -2.4250444732 0.1018119617 -0.1336047511
C -1.0007362331 0.4146432498 0.3072559496
C -0.0179023882 -0.6285950685 -0.2304553107
O 1.2955871807 -0.5118964482 0.2871367769
C 2.0234123162 0.5994906134 -0.1933407689
H -3.1101508605 0.8543765293 0.2467376564
H -2.4927336653 0.089055048 -1.218819862
H -2.7354120256 -0.8702346167 0.2413709999
H -0.937590685 0.4194063672 1.3971773576
H -0.7190836504 1.4056191093 -0.0532459801
H -0.3404045049 -1.6283798152 0.0713606838
H 0.012233156 -0.5842169547 -1.3293009068
H 3.0411875421 0.4682005736 0.1666190844
H 1.621571015 1.5419463511 0.1895392674
H 2.0191709505 0.6224165752 -1.2885086366
*
