  11
        -13.80604535
 C         -2.1140005943       -1.2590235807       -0.1434859034
 C         -1.4863774172        0.0000017990        0.4169545212
 C         -2.1140228430        1.2590117524       -0.1434889676
 I          0.6617563884        0.0000012434       -0.0107987921
 H         -1.6443223014       -2.1513865461        0.2650323315
 H         -3.1727147603       -1.2796623477        0.1153706775
 H         -2.0258494589       -1.2872566960       -1.2280797080
 H         -1.5380682760        0.0000047608        1.5060767841
 H         -2.0261999208        1.2870558041       -1.2281120740
 H         -1.6441177719        2.1513876959        0.2647389095
 H         -3.1726534280        1.2798202956        0.1156980780
  11
        -13.80068775
 C         -2.1108513896       -1.2475627898       -0.1441000563
 C         -1.4890550893        0.0203771427        0.4057621897
 C         -2.1492265303        1.2843316388       -0.1426913109
 I          0.6659520997       -0.0064633043       -0.0097569930
 H         -2.0294662807       -1.2822128806       -1.2291099864
 H         -1.6309845472       -2.1337737262        0.2667239574
 H         -3.1671344409       -1.2746988515        0.1246196482
 H         -1.5283801295        0.0078904160        1.4944706957
 H         -2.9628203147        1.0196070323       -0.8155111406
 H         -1.4589238127        1.9131239719       -0.6979697164
 H         -2.5605994995        1.8828568685        0.6675194454
