  11
        -13.80604535
 C         -2.1140005943       -1.2590235807       -0.1434859034
 C         -1.4863774172        0.0000017990        0.4169545212
 C         -2.1140228430        1.2590117524       -0.1434889676
 I          0.6617563884        0.0000012434       -0.0107987921
 H         -1.6443223014       -2.1513865461        0.2650323315
 H         -3.1727147603       -1.2796623477        0.1153706775
 H         -2.0258494589       -1.2872566960       -1.2280797080
 H         -1.5380682760        0.0000047608        1.5060767841
 H         -2.0261999208        1.2870558041       -1.2281120740
 H         -1.6441177719        2.1513876959        0.2647389095
 H         -3.1726534280        1.2798202956        0.1156980780
