! r2scan-3c def2/J RI DEFGRID2 scfconv6 printgap
%output
    printlevel normal
end
%cpcm
    smd true
    smdsolvent "water"
end
* xyz 0 1
C 2.8295149675 -0.3284998621 0.1638694253
C 1.4426561921 -0.4965115462 -0.4460248931
C 0.3969847169 0.3006471323 0.327682202
C -1.001523829 0.2530271044 -0.2951134596
H -0.91664176 0.4816853736 -1.3714505203
C -1.6714396688 -1.1083351024 -0.1227848867
O -1.7565931837 1.2804442979 0.3328404474
H 3.5640936709 -0.9019539042 -0.3958960283
H 2.8350121844 -0.6738146261 1.1950149607
H 3.1266103724 0.7175622871 0.1522763407
H 1.4584757478 -0.1575434577 -1.4842516945
H 1.1780453199 -1.5549620885 -0.4438445193
H 0.3331437552 -0.0610457246 1.355625085
H 0.6961464785 1.3504943236 0.3680837584
H -1.0767526662 -1.8812626047 -0.5987484428
H -1.7723650839 -1.3375180544 0.9354825313
H -2.6597595285 -1.1073151872 -0.5774454527
H -2.6701950945 1.2412636847 0.019145428
*
