! pbe def2-sv(p) def2/J RI DEFGRID1 loosescf d4 GCP(DFT/SV(P)) printgap
%output
    printlevel normal
end
* xyz 0 1
C -1.2530835211 0.2433691497 -0.2238927356
C 0.1482735273 0.6704537857 0.2582436409
C 1.2379607948 -0.23143707 -0.349764483
O 1.1780694433 -1.5526487545 0.1280160784
O 0.3815306667 2.0300678754 -0.0253892269
O -1.6086481669 -1.0507930213 0.2102533676
H -1.2682382606 0.203749017 -1.317410516
H -1.9836678998 0.9901552079 0.1076855811
H 0.1988220339 0.5894313755 1.350407796
H 2.2227486502 0.1526046696 -0.0709904456
H 1.1517241655 -0.2170288183 -1.447032786
H 0.2705469781 -1.878548314 -0.0041900345
H 0.4034110621 2.162050619 -0.9839226042
H -1.8034293292 -1.0324313541 1.1574969519
*
