! r2scan-3c def2/J RI DEFGRID2 scfconv6 printgap
%output
    printlevel normal
end
* xyz 0 1
C 1.7631864803 1.5307651916 0.2633814551
C 1.30168311 0.0923536829 0.5251587433
C 2.3612915335 -0.9036819735 0.0524646995
C 0.010412967 -0.1329392209 -0.2428915244
O 0.0070995304 -0.2429255119 -1.4519835514
C -1.281057904 -0.1703740495 0.5562699962
C -2.133545814 -1.3557042194 0.1020105539
C -2.0242922654 1.1486652918 0.3144917653
H 1.0379849395 2.2456176507 0.6439276651
H 1.8818071066 1.6912823426 -0.8058736545
H 2.7167129016 1.7070025398 0.7536006485
H 1.1260406923 -0.0392636659 1.5952247848
H 2.0589456991 -1.9217022519 0.2875097638
H 2.4871545006 -0.82289753 -1.0248173379
H 3.3120314323 -0.6992897377 0.5366999044
H -1.0570975474 -0.2662834105 1.6211044799
H -1.6309422185 -2.2940635522 0.3253608357
H -3.0947961789 -1.3433775891 0.6079883862
H -2.2970709841 -1.3008655074 -0.9718422237
H -2.198729479 1.2839366356 -0.7506004561
H -2.9814232619 1.1320964169 0.8284998015
H -1.4456458549 1.9923736534 0.681977816
*
