  19
        -41.49471462
 C          0.7310804181       -2.8230192177        0.0336659715
 O          1.4608615284       -1.6178839322        0.0196976891
 C          0.8485732104       -0.4216375296       -0.0078561313
 C          1.7223729379        0.6840564539        0.0018228213
 C          1.2593255919        1.9822157313       -0.0002322874
 C         -0.1035204220        2.2298573656       -0.0101042736
 C         -0.9745665596        1.1592106342       -0.0157316209
 C         -0.5259131439       -0.1653177409       -0.0153558505
 C         -1.6030595998       -1.2099184080       -0.0687446433
 O         -1.9311019299       -1.8151305779       -1.0518874016
 O         -2.2022842294       -1.3561156649        1.1151482660
 Cl        -2.6731721041        1.4552781313       -0.0584880333
 Cl         3.4140005890        0.3722733318        0.0159774460
 H          0.1784320070       -2.9716750409       -0.8967703747
 H          0.0452816951       -2.8642125371        0.8845507359
 H          1.4800824968       -3.6068633232        0.1403071874
 H          1.9641411390        2.7976444806        0.0051072904
 H         -0.4827054448        3.2380520882       -0.0166102910
 H         -2.9592254511       -1.9606707249        1.0454164817
