  12
  -28.1871713900000        1.00000000000000      !md2
 C         -0.5455842316        1.3586282917       -0.0006453140
 C          0.1546704625        0.2081712433       -0.0003952298
 C         -0.5169951003       -1.0898610927       -0.0002938217
 O          0.0174915063       -2.1673902446       -0.0007030290
 N         -1.9042650680       -0.9643691579        0.0004052238
 C         -2.6600813262        0.1850428548        0.0001831514
 O         -3.8622838857        0.1947066123        0.0006936471
 N         -1.9074658442        1.3465711331       -0.0006448563
 Br         2.0364181682        0.1943887074        0.0002277343
 H         -0.0634588345        2.3248765885       -0.0008309021
 H         -2.4278556284       -1.8339147609        0.0007776484
 H         -2.4285034860        2.2125538624       -0.0008030639
