  12
        -27.91687723
 C          1.0395660296        1.3511816359        0.0001685805
 C          0.3560262295        0.1935846383        0.0001561202
 C          1.0452612041       -1.0908261314        0.0001211912
 O          0.5192293000       -2.1734002953        0.0005588802
 N          2.4302450479       -0.9537433316       -0.0005795670
 C          3.1702542482        0.2055285627       -0.0001110312
 O          4.3725533698        0.2315042618       -0.0002077874
 N          2.4025078482        1.3567074909        0.0004961071
 I         -1.7322487264        0.1162791667       -0.0000649319
 H          0.5509837832        2.3141943317        0.0002947199
 H          2.9639385262       -1.8169194518       -0.0007951848
 H          2.9129337662        2.2289332512        0.0002721270
