! pbe def2-sv(p) def2/J RI DEFGRID1 loosescf d4 GCP(DFT/SV(P)) printgap
%output
    printlevel normal
end
* xyz 0 1
C -2.4331236255 -0.292541071 -0.8806674032
C -1.7272487415 0.7454576008 -0.0147277487
C -0.5788384843 0.1969479044 0.8367085457
C 0.7807641824 -0.0761179777 0.1576287912
C 1.2847875107 1.1404844842 -0.6200608677
C 0.763589282 -1.3124310705 -0.7474293676
O 1.7434643785 -0.2804432214 1.1993412524
H -3.3281674198 0.1419869699 -1.3203159825
H -2.7298808491 -1.1506625317 -0.2819650811
H -1.7981873312 -0.6405643019 -1.6888569332
H -1.3719348946 1.5654387643 -0.6384363656
H -2.4642399325 1.1625691076 0.6762182243
H -0.3715917261 0.9234307459 1.6279687463
H -0.9132645851 -0.7252648896 1.3208342608
H 0.686659202 1.3075520755 -1.5092124306
H 2.3164961005 0.9669734284 -0.9146083109
H 1.2537113439 2.0239074485 0.0119656222
H 1.7890854802 -1.6043741747 -0.9651314463
H 0.264370318 -1.0995477657 -1.686127002
H 0.2588324005 -2.1437442186 -0.2605246913
H 1.4943955586 -1.0641377699 1.7069593224
*
