  17
        -28.17003661
 C         -1.8772934403       -1.4093098283       -0.4979122318
 C         -1.5071683591        0.0564055931       -0.2905069599
 C         -2.7466020905        0.9079568959       -0.0356346670
 C         -0.5454932148        0.1973885184        0.8950792373
 O          0.6676320080       -0.5127793173        0.7017270277
 N          1.6384887364        0.1055531678       -0.0720755193
 O          1.3975194028        1.1945049438       -0.4783322466
 O          2.6077004211       -0.5546666355       -0.2210255928
 H         -2.4323178859       -1.7832580321        0.3596645673
 H         -0.9848907879       -2.0182587012       -0.6206892391
 H         -2.4956709069       -1.5203497721       -1.3846699576
 H         -1.0034638762        0.4307812090       -1.1879814453
 H         -3.4377504302        0.8176244615       -0.8690925672
 H         -2.4789356125        1.9557216318        0.0759965741
 H         -3.2541715274        0.5806508891        0.8690538591
 H         -0.3223004532        1.2533417953        1.0815912146
 H         -0.9736897080       -0.2499276339        1.7937465635
