  17
        -28.17003661
 C         -1.8772934403       -1.4093098283       -0.4979122318
 C         -1.5071683591        0.0564055931       -0.2905069599
 C         -2.7466020905        0.9079568959       -0.0356346670
 C         -0.5454932148        0.1973885184        0.8950792373
 O          0.6676320080       -0.5127793173        0.7017270277
 N          1.6384887364        0.1055531678       -0.0720755193
 O          1.3975194028        1.1945049438       -0.4783322466
 O          2.6077004211       -0.5546666355       -0.2210255928
 H         -2.4323178859       -1.7832580321        0.3596645673
 H         -0.9848907879       -2.0182587012       -0.6206892391
 H         -2.4956709069       -1.5203497721       -1.3846699576
 H         -1.0034638762        0.4307812090       -1.1879814453
 H         -3.4377504302        0.8176244615       -0.8690925672
 H         -2.4789356125        1.9557216318        0.0759965741
 H         -3.2541715274        0.5806508891        0.8690538591
 H         -0.3223004532        1.2533417953        1.0815912146
 H         -0.9736897080       -0.2499276339        1.7937465635
  17
        -28.16930995
 C         -1.4226058042       -1.3782831956        0.1346623326
 C         -1.6992269214        0.0205702413       -0.4108661526
 C         -2.9802453134        0.5951023457        0.1859730863
 C         -0.5370326662        0.9702935490       -0.0972253538
 O          0.6701912724        0.5452543811       -0.7079500952
 N          1.6203577630       -0.0855854365        0.0872398994
 O          1.4043901747       -0.1619142869        1.2508731287
 O          2.5555869502       -0.4633488323       -0.5287165870
 H         -1.2302477386       -1.3417729348        1.2050639588
 H         -0.5636904438       -1.8276890686       -0.3596420463
 H         -2.2804020444       -2.0224108158       -0.0400168474
 H         -1.8017899091       -0.0375865351       -1.4990789534
 H         -2.8987224565        0.6584850355        1.2686953640
 H         -3.8248623245       -0.0434643838       -0.0575645027
 H         -3.1781279854        1.5900938986       -0.2052321682
 H         -0.7337547411        1.9659584211       -0.5016597197
 H         -0.3883156954        1.0428903407        0.9854437944
  17
        -28.16899683
 C         -1.4348574352       -0.5028682465       -1.3588926217
 C         -1.8005020599        0.3045800752       -0.1150974129
 C         -2.4297556660       -0.5897737552        0.9493983060
 C         -0.5701230467        1.0239487092        0.4547000605
 O          0.4521958493        0.1112123645        0.8208127056
 N          1.5260488376       -0.0486697100       -0.0442045423
 O          1.5753727296        0.6507417144       -1.0011236247
 O          2.2818807547       -0.8845565130        0.3133239313
 H         -0.9218774481        0.1183482731       -2.0899481523
 H         -2.3334825349       -0.9046670088       -1.8193449744
 H         -0.7914597803       -1.3410097105       -1.0972015815
 H         -2.5120941022        1.0875841857       -0.3967035853
 H         -3.2902776064       -1.1131496228        0.5412788305
 H         -2.7566990436       -0.0003572924        1.8025763633
 H         -1.7076305877       -1.3251677336        1.2952541021
 H         -0.1699649127        1.7359052061       -0.2746064878
 H         -0.8276220396        1.5540339560        1.3744432784
  17
        -28.16880958
 C         -2.8504596034       -0.8659578455        0.8586026094
 C         -1.7829036359       -0.5375901732       -0.1805925112
 C         -2.2154371382        0.6277172601       -1.0653093920
 C         -0.4686077072       -0.2071605671        0.5267402104
 O          0.5468981221       -0.1012741869       -0.4604984790
 N          1.8070554568        0.2432799065       -0.0058463853
 O          1.9259810791        0.4143236176        1.1634110172
 O          2.6154126168        0.3228615918       -0.8649588645
 H         -2.5541535992       -1.7173034247        1.4663789848
 H         -3.7877968323       -1.1064778597        0.3646611015
 H         -3.0165716494       -0.0146232246        1.5147892640
 H         -1.6078495402       -1.4144099061       -0.8108605304
 H         -3.1221541814        0.3721817441       -1.6069633104
 H         -1.4371861941        0.8628713157       -1.7861033458
 H         -2.4123138910        1.5109310478       -0.4612291855
 H         -0.5477699195        0.7404158397        1.0718937362
 H         -0.1977157257       -0.9947073372        1.2393052061
  17
        -28.16857973
 C         -1.7892934665       -1.4286318480        0.4419466967
 C         -1.8178596086       -0.1409417870       -0.3763701058
 C         -3.0369363820        0.7064743770       -0.0262174053
 C         -0.5467468856        0.6739885482       -0.1284712109
 O          0.5682982069       -0.0488526601       -0.6286812657
 N          1.7697049095        0.0561238090        0.0549461584
 O          1.8011090654        0.7761369568        0.9979387562
 O          2.6281904411       -0.6088155496       -0.4120008984
 H         -0.9181907550       -2.0252144412        0.1830610976
 H         -2.6788226601       -2.0200735788        0.2427542237
 H         -1.7569443339       -1.2034150288        1.5061717796
 H         -1.8465869365       -0.3970812806       -1.4394527790
 H         -3.9470654480        0.1418796242       -0.2087236890
 H         -3.0677037850        1.6112125642       -0.6282803765
 H         -3.0135464290        0.9906044009        1.0234417084
 H         -0.5946168376        1.6388876946       -0.6451157419
 H         -0.4096365166        0.8562851825        0.9430056292
  17
        -28.16838000
 C         -2.1408121659       -1.5420005848        0.0453273602
 C         -1.7589550004       -0.1197845607       -0.3528635313
 C         -2.9164125286        0.8475658374       -0.1249857616
 C         -0.5412498906        0.3459302047        0.4486032488
 O          0.5785697780       -0.4594799508        0.1101707204
 N          1.8143957857        0.1567922598       -0.0194146753
 O          1.8712433859        1.3231763264        0.1918619876
 O          2.6725421830       -0.5929394598       -0.3327531057
 H         -2.9628227613       -1.8984912878       -0.5696868669
 H         -2.4505279818       -1.5729399415        1.0875796182
 H         -1.2930510919       -2.2087700342       -0.0853051564
 H         -1.4852810743       -0.1109639214       -1.4127267110
 H         -2.6518061094        1.8538059849       -0.4407368533
 H         -3.1858134495        0.8758337022        0.9283548287
 H         -3.7855862324        0.5268313580       -0.6925970890
 H         -0.3089426809        1.3930817010        0.2272811776
 H         -0.7254818791        0.2452239854        1.5236578427
  17
        -28.16827018
 C         -2.0999259899       -1.3787204751       -0.7054069646
 C         -1.9614735415        0.0786058652       -0.2743185644
 C         -2.3002397282        0.2488021195        1.2039108777
 C         -0.5469306101        0.5877600178       -0.5599412450
 O          0.3711460065       -0.1863174520        0.1987747982
 N          1.7044405856        0.1417570140        0.0593924811
 O          1.9631954573        1.0365078876       -0.6781320553
 O          2.4280385551       -0.5302554823        0.7105999941
 H         -1.8800829240       -1.4902108304       -1.7646568895
 H         -3.1132492891       -1.7277128695       -0.5262805479
 H         -1.4133319390       -2.0019041213       -0.1389135349
 H         -2.6400497803        0.6963787981       -0.8721352094
 H         -2.2222332633        1.2924064571        1.4998379361
 H         -1.6182313706       -0.3385369196        1.8126584732
 H         -3.3151123444       -0.0881074376        1.3968926366
 H         -0.3056298087        0.4909354528       -1.6247047069
 H         -0.4481047986        1.6422088449       -0.2776615871
  17
        -28.16804732
 C         -1.8639613444       -1.1085233687       -1.0459050497
 C         -1.9414765456        0.1690678691       -0.2142487263
 C         -2.4314940215       -0.1256074791        1.2003514744
 C         -0.5765961009        0.8625033273       -0.1730348946
 O          0.3659246112       -0.0022648362        0.4442585113
 N          1.6801190163        0.0687289453        0.0191817147
 O          1.9442492774        0.8749357285       -0.8113741727
 O          2.3856514166       -0.7101729411        0.5614142409
 H         -1.5186537413       -0.8932003886       -2.0548530801
 H         -2.8439189071       -1.5732766542       -1.1110197551
 H         -1.1792391727       -1.8157258265       -0.5844941232
 H         -2.6312527658        0.8699385948       -0.6963052464
 H         -1.7321599013       -0.7855957785        1.7061667530
 H         -3.4049644882       -0.6074735987        1.1681928669
 H         -2.5202050213        0.7928553912        1.7755206756
 H         -0.2341279355        1.1009121584       -1.1858488049
 H         -0.6296198029        1.7908284627        0.4064668355
  17
        -28.16731000
 C         -2.6925051249       -1.2401623535        0.0603477346
 C         -1.5024533067       -0.3451790699       -0.2766514388
 C         -1.9741411798        1.0608215589       -0.6416445265
 C         -0.5030186208       -0.3113331914        0.8972512623
 O          0.8051056864       -0.7093107472        0.5140406711
 N          1.6273491813        0.2553758495       -0.0493196594
 O          1.1957669196        1.3578014576       -0.1339110368
 O          2.6842066913       -0.1636525580       -0.3727401131
 H         -3.2261112780       -0.8520367784        0.9251881411
 H         -2.3646512052       -2.2538594090        0.2771980270
 H         -3.3822298952       -1.2758990432       -0.7789567894
 H         -0.9811956841       -0.7787811073       -1.1372622470
 H         -2.5351530945        1.4947364059        0.1832483495
 H         -2.6219696194        1.0235622225       -1.5136738696
 H         -1.1304137350        1.7082421538       -0.8654328221
 H         -0.4604599023        0.6868731290        1.3441854965
 H         -0.7731974685       -1.0373513067        1.6652269734
