! r2scan-3c def2/J RI DEFGRID2 scfconv6 printgap
%output
    printlevel normal
end
%cpcm
    smd true
    smdsolvent "water"
end
* xyz 0 1
C 1.4763216538 0.912547425 -0.9472134427
C 1.3839191124 0.1205344081 0.3550750862
C 1.6598687391 -1.3593517762 0.108375911
C 0.0129102363 0.330824356 1.0354375056
C -1.1428945658 -0.0004937753 0.121310341
O -1.3939144047 -1.1377704813 -0.2304210599
C -1.9713070772 1.1708964627 -0.3162998027
H 1.2652645602 1.965435693 -0.775788865
H 2.4767376916 0.8295721824 -1.364890388
H 0.7697086701 0.5246816776 -1.6784920991
H 2.1428772467 0.5024880062 1.0468437663
H 1.6897120064 -1.9065810054 1.0477865018
H 2.6146465793 -1.4866942461 -0.3958958234
H 0.8800906571 -1.7944934899 -0.5128872615
H -0.0671603231 1.364332451 1.3689574644
H -0.0392655353 -0.3320600461 1.9012375809
H -1.3321207827 1.9301993814 -0.7587895806
H -2.7295059703 0.856901802 -1.0286852272
H -2.4518460512 1.6053854756 0.5577355751
*
