! r2scan-3c def2/J RI DEFGRID2 scfconv6 printgap
%output
    printlevel normal
end
%cpcm
    smd true
    smdsolvent "water"
end
* xyz 0 1
C -1.0858497228 -0.1505368268 0.7209414989
C 0.2336847068 0.5467188707 0.3510619775
C 1.1084616227 -0.3747020257 -0.5030886448
O 1.6665300613 -1.3524506276 0.3450205118
O -0.0214725732 1.7182839394 -0.397270648
O -1.8745271824 -0.4044154174 -0.4172512991
H -1.6450316039 0.469844894 1.4359539739
H -0.8672182055 -1.1147507079 1.1819477878
H 0.7883853066 0.7721864614 1.2709579736
H 1.8895427151 0.2339118881 -0.9763771535
H 0.4884283722 -0.8311106059 -1.2837464812
H 2.1707417461 -1.9827640149 -0.1874176279
H -0.3590660708 2.4079558678 0.1911546514
H -1.8773868597 0.4011954877 -0.9591619377
*
