! pbe def2-sv(p) def2/J RI DEFGRID1 loosescf d4 GCP(DFT/SV(P)) printgap
%output
    printlevel normal
end
* xyz 0 1
C -0.2469702627 -2.8220695799 -0.1728702589
C 0.5230128616 -1.5471775549 -0.0465825934
C 1.8918223198 -1.4540032722 -0.3465053811
N 2.5625192724 -0.3232338319 -0.2281282649
C 1.9065806131 0.7710929856 0.1905026678
N 0.5910733738 0.7891390109 0.4815601024
C -0.0549772443 -0.3500844813 0.3526480342
O -1.4052223201 -0.2966614402 0.694420638
C -2.2656371041 -0.023031127 -0.3284834927
O -1.8930494475 0.0520628416 -1.4905563764
N -3.5252940883 0.1271752294 0.0825281824
C -4.5761649519 0.3712143986 -0.8828153965
C -3.9450284924 0.0379290136 1.4644413726
N 2.5971975184 1.9069346581 0.3274459339
C 1.9769234378 3.136063778 0.756470594
C 4.0069496125 1.9811941263 0.0284511771
C 2.659030283 -2.6440127063 -0.8192288495
H -0.3652700333 -3.0863895915 -1.2237553986
H 0.274331998 -3.6339469897 0.3296834875
H -1.235034909 -2.7100778268 0.2672429341
H -5.0534311714 1.3287784577 -0.6745113168
H -5.3191414265 -0.4244942647 -0.8262522905
H -4.1357920467 0.3919937677 -1.8766517578
H -4.5602089794 -0.8518402815 1.6075546139
H -4.5316816241 0.9215733452 1.7147627111
H -3.0750042491 -0.0150101185 2.111120339
H 2.0837886433 3.8956280237 -0.0200186254
H 2.4568324172 3.4918763409 1.6696495011
H 0.9238026294 2.9527478951 0.9433429497
H 4.5535465625 2.3049456743 0.9154640741
H 4.1771861384 2.6996940473 -0.7750630941
H 4.3522795249 0.999537222 -0.2788867302
H 3.6788925531 -2.3504490932 -1.0436006119
H 2.6634397511 -3.4124613558 -0.0490772153
H 2.1901323489 -3.0586539669 -1.7084803358
*
