  22
        -28.12050807
 C         -2.5438160034       -1.2088226508        0.1068993125
 C         -1.6337393512       -0.0350540855        0.4330555276
 O         -0.7742278549        0.1899417556       -0.6760865778
 C          0.3646306525        0.9683774075       -0.4132589809
 C          0.0365842696        2.3799752269        0.0762694680
 O          1.2214215426        0.3915852128        0.5339966692
 C          2.0439564703       -0.6640064394        0.0737412940
 C          1.3101475216       -1.9839114984       -0.1400519314
 H         -3.1016105623       -0.9993805803       -0.8017163307
 H         -1.9577510320       -2.1105283680       -0.0480974914
 H         -3.2406226286       -1.3726948899        0.9245044777
 H         -1.0313411090       -0.2492996958        1.3243711403
 H         -2.2379351880        0.8629803477        0.6238841517
 H          0.8650553277        1.0195823237       -1.3961204619
 H         -0.7270797198        2.8183710608       -0.5598014067
 H          0.9352124978        2.9877763272        0.0391506852
 H         -0.3144904349        2.3410401399        1.1032016600
 H          2.5375944246       -0.3588046457       -0.8611142821
 H          2.8036542792       -0.7762920658        0.8525740647
 H          2.0198030784       -2.7464073188       -0.4513149577
 H          0.8338811958       -2.3009304626        0.7846691272
 H          0.5486105262       -1.8704476312       -0.9071501902
