! r2scan-3c def2/J RI DEFGRID2 scfconv6 printgap
%output
    printlevel normal
end
* xyz 0 1
C 7.92363e-05 -2.5243954136 -6.30695e-05
C -2.72503e-05 -1.1911062182 -4.17509e-05
C -1.2552246537 -0.4196603638 -0.0452367395
C -2.3754890464 -0.8256823241 0.6757056453
C -3.5514397957 -0.1005384766 0.6157786071
C -3.6284479804 1.0387311458 -0.1681893755
C -2.520051083 1.4515223437 -0.8895128289
C -1.3415510252 0.7317042328 -0.8256875485
C 1.2552003872 -0.4196387392 0.0452019658
C 1.3414138396 0.7319058151 0.825409065
C 2.5199225062 1.4517161901 0.8893355777
C 3.6284424578 1.0388026898 0.168268898
C 3.5515505284 -0.1006002276 -0.6155333418
C 2.3755968851 -0.8257477327 -0.6754463458
H 0.9142358606 -3.0899401828 0.0524239425
H -0.9140445754 -3.0900370325 -0.0524492148
H -2.3148091469 -1.7043899067 1.3004770047
H -4.4105086232 -0.4234046339 1.185098039
H -4.5470442996 1.6040336501 -0.2146979462
H -2.573896125 2.3386911824 -1.5029347603
H -0.4795826554 1.0542776448 -1.392038037
H 0.4794676717 1.0546258796 1.3916982519
H 2.5736571796 2.3391177441 1.5024584187
H 4.5469895381 1.6042009115 0.2147448326
H 4.4107306154 -0.4236609972 -1.1845608673
H 2.3151024129 -1.704591945 -1.3000857005
*
