! r2scan-3c def2/J RI DEFGRID2 scfconv6 printgap
%output
    printlevel normal
end
%cpcm
    smd true
    smdsolvent "water"
end
* xyz 0 1
C -2.8349730419 -0.1626463599 -0.0921715582
C -1.9528605352 -1.2147336179 -0.2588556162
C -0.5864051058 -1.0099587696 -0.1511261389
C -0.0796424162 0.2533237183 0.1223502666
C -0.9781703758 1.3045909781 0.2871971762
C -2.3413046266 1.1019814904 0.1834310963
C 1.3914491676 0.544394381 0.2646028272
C 2.3292239986 -0.5666076655 -0.2094890971
O 3.6892510571 -0.2094050633 -0.0746947845
H -3.8988292817 -0.3254756847 -0.1760247276
H -2.3274303307 -2.2046317259 -0.4737382805
H 0.0796784372 -1.847707703 -0.2829446828
H -0.5996346619 2.2938845749 0.5015046158
H -3.0201199731 1.9312870947 0.3159808434
H 1.6167106046 1.4566327343 -0.2959914382
H 1.6102605913 0.7518204918 1.3166332164
H 2.2129203693 -1.4589316387 0.4096694121
H 2.1081972695 -0.8290115615 -1.2533062871
H 3.8671916851 0.572912985 -0.6152116461
*
