! pbe def2-sv(p) def2/J RI DEFGRID1 loosescf d4 GCP(DFT/SV(P)) printgap
%output
    printlevel normal
end
* xyz 0 1
C 2.5522838971 -0.2220585088 0.7267140117
C 1.1360313869 -0.6512861802 0.3542321459
C 0.2428358219 0.5346602325 -0.0306579584
H 0.3971625645 1.3433249422 0.7051098565
C -1.2630302206 0.2059104313 -0.049870973
C -1.5709137131 -1.0175713775 -0.910173845
C -1.830657035 0.0425228609 1.3570921109
O 0.5595297967 1.0303111157 -1.3237209904
H 3.1328900271 -1.0865862014 1.0383436884
H 2.5303898089 0.4911316606 1.5482427068
H 3.0637434006 0.237112118 -0.1163174414
H 1.1725098029 -1.3470008354 -0.485131683
H 0.6877926474 -1.162778308 1.2055218208
H -1.7394319248 1.0750416429 -0.5184220086
H -2.6449040683 -1.1113904863 -1.0498863803
H -1.1029217867 -0.9098681995 -1.8853103505
H -1.2055252739 -1.9259069691 -0.4384403251
H -1.6133158818 0.9172819284 1.9653646153
H -1.4125464336 -0.8330560838 1.8472657116
H -2.9090924349 -0.0815110221 1.3050376009
H 1.5016931204 1.2408144898 -1.3563266978
*
