! r2scan-3c def2/J RI DEFGRID2 scfconv6 printgap
%output
    printlevel normal
end
* xyz 0 1
C -2.1065140036 0.1928473163 1.3249815168
C -1.7651048348 -0.5732667402 0.0494556262
C -2.9141326428 -0.5082800583 -0.9528317626
C -0.4962616014 -0.0095688049 -0.586390493
O 0.6097113227 -0.2563731437 0.2916700513
C 1.7888339482 0.2506122462 -0.0438039002
O 1.9674162046 0.8990664319 -1.0555656552
C 2.842139313 -0.0637194842 0.9752397404
H -2.9763225799 -0.2456608671 1.8059702874
H -2.3256080489 1.2328634773 1.0935197414
H -1.2707956453 0.1592500906 2.0188603111
H -1.567521675 -1.6182375704 0.3072619631
H -3.818477721 -0.9134187703 -0.5082761306
H -2.680734848 -1.0812747652 -1.8464064747
H -3.1033585433 0.5222060437 -1.2436956127
H -0.2860316008 -0.4869827351 -1.5495416728
H -0.5781844599 1.0698050145 -0.7546420437
H 2.5319511432 -0.9090391948 1.5796606285
H 2.9733426094 0.8075786726 1.6134367323
H 3.7844927705 -0.2618394332 0.4738606415
*
