  14
        -24.47430808
 C         -0.7352205938       -1.8167702808        0.0000170491
 C          0.5930958818       -1.4296684244        0.0000237243
 C          0.9043789103       -0.0714384569       -0.0000575146
 C         -0.1062391404        0.8890605946       -0.0000089327
 C         -1.4341517013        0.4867778605       -0.0000034826
 C         -1.7445122496       -0.8731095409       -0.0000266941
 O         -2.4578227460        1.3749325189        0.0000481221
 C          2.2558040549        0.3457051164       -0.0000225306
 N          3.3495350309        0.6889235359        0.0000329166
 H         -0.9872434125       -2.8662160752       -0.0000130056
 H          1.3859033619       -2.1616943552        0.0000618725
 H          0.1510383140        1.9402427759        0.0000370525
 H         -2.7830206005       -1.1627417506       -0.0000476077
 H         -2.1194604048        2.2788257369       -0.0003255839
