  14
        -24.47430808
 C         -0.7352205938       -1.8167702808        0.0000170491
 C          0.5930958818       -1.4296684244        0.0000237243
 C          0.9043789103       -0.0714384569       -0.0000575146
 C         -0.1062391404        0.8890605946       -0.0000089327
 C         -1.4341517013        0.4867778605       -0.0000034826
 C         -1.7445122496       -0.8731095409       -0.0000266941
 O         -2.4578227460        1.3749325189        0.0000481221
 C          2.2558040549        0.3457051164       -0.0000225306
 N          3.3495350309        0.6889235359        0.0000329166
 H         -0.9872434125       -2.8662160752       -0.0000130056
 H          1.3859033619       -2.1616943552        0.0000618725
 H          0.1510383140        1.9402427759        0.0000370525
 H         -2.7830206005       -1.1627417506       -0.0000476077
 H         -2.1194604048        2.2788257369       -0.0003255839
  14
        -24.47399459
 C         -0.7154376079       -1.8206640874       -0.0000013375
 C          0.6060857955       -1.4195241262       -0.0000104801
 C          0.9028910199       -0.0554486307       -0.0000108931
 C         -0.1135680612        0.8937808640       -0.0000022013
 C         -1.4396894401        0.4765757032        0.0000062715
 C         -1.7351263212       -0.8839247891        0.0000069855
 O         -2.4060378111        1.4269925875        0.0000118539
 C          2.2534429231        0.3667510674       -0.0000396203
 N          3.3504108134        0.6987783484        0.0000298537
 H         -0.9587725612       -2.8723707009       -0.0000046025
 H          1.4063034355       -2.1433884754       -0.0000222011
 H          0.1097850730        1.9489162538       -0.0000052890
 H         -2.7678962310       -1.2065959456        0.0000136464
 H         -3.2796092823        1.0168767915        0.0000264446
