  14
  -23.3704747100000       0.500023809384006      !md1
 C          0.8610060143       -1.8259530993        0.0013347500
 C          1.8778616090       -0.8933015172       -0.0080985170
 C          1.5847054843        0.4723845736       -0.0116653806
 C          0.2479642578        0.8745273820       -0.0095929396
 C         -0.7528836657       -0.0770670895        0.0004361532
 C         -0.4672222150       -1.4320912540        0.0052124870
 Cl        -2.4037283543        0.4445034737        0.0004079186
 N          2.5904813020        1.4082362849        0.0500860020
 H          1.1020547924       -2.8783305153        0.0032423496
 H          2.9098428666       -1.2121171991       -0.0107490198
 H          0.0001908683        1.9249528339       -0.0127804400
 H         -1.2633469260       -2.1582114347        0.0106845999
 H          3.5111927865        1.1062212093       -0.2215714155
 H          2.3532646689        2.3503194505       -0.2125943754
  14
  -23.3704746200000       0.499976190615994      !mtd1
 C          0.8609980773       -1.8259350484        0.0013805850
 C          1.8778527409       -0.8932913136       -0.0080997948
 C          1.5846724687        0.4723822047       -0.0117040380
 C          0.2479706370        0.8744487118       -0.0096296849
 C         -0.7529830469       -0.0770913273        0.0004552786
 C         -0.4672557650       -1.4321065082        0.0052372702
 Cl        -2.4036901531        0.4445247799        0.0004551341
 N          2.5905433255        1.4083040827        0.0501804971
 H          1.1020249479       -2.8782915949        0.0030571684
 H          2.9097912592       -1.2120960288       -0.0107833855
 H          0.0000302124        1.9248567207       -0.0129273945
 H         -1.2633532128       -2.1583375647        0.0105533890
 H          2.3537031510        2.3500461493       -0.2142409020
 H          3.5108988425        1.1060646831       -0.2225568491
