! r2scan-3c def2/J RI DEFGRID2 scfconv6 printgap
%output
    printlevel normal
end
%cpcm
    smd true
    smdsolvent "water"
end
* xyz 0 1
C 2.3532542282 -0.1490424051 -0.6984309382
C 1.5279121363 -0.6609632997 0.4771946697
C 0.324559862 0.2219594134 0.8043113029
C -0.7800980046 0.2434618829 -0.2576176876
H -0.3381043134 0.4752732204 -1.2392797839
C -1.5327393164 -1.0825211913 -0.3435659074
O -1.6534167535 1.3055824823 0.1070430847
H 3.2445812831 -0.7589114576 -0.8240946476
H 2.6614485503 0.8794372917 -0.5253253827
H 1.7849279511 -0.1861490305 -1.6239546191
H 1.1969743859 -1.6805081236 0.274395151
H 2.1652225439 -0.6949704524 1.3631737573
H -0.1245563655 -0.1047211906 1.7445534608
H 0.6576893372 1.2529542981 0.9434174785
H -0.8531913292 -1.8840958025 -0.6147545097
H -1.986706582 -1.3116088172 0.6178589029
H -2.315630772 -1.028200849 -1.0970743188
H -2.4036107736 1.3233036624 -0.5023198026
*
