  24
        -36.23997532
 C         -2.4995514830        1.0569534018        0.2054235294
 O         -2.0725688831       -0.1957978113        0.6944540952
 C         -0.7485292688       -0.2225384419        1.1424576448
 C          0.3038345075       -0.0641640292        0.0056409363
 O          1.5023930226       -0.7458358820        0.3302237424
 C          2.1703000831       -0.3052738724        1.4941331716
 O          0.5249406269        1.2990493677       -0.1410457424
 C          1.3576766129        1.6621017675       -1.2364775961
 O         -0.1299365359       -0.5706306433       -1.2115314645
 C         -0.4460642201       -1.9525604191       -1.2392971134
 H         -3.5574314214        0.9425884046       -0.0232089851
 H         -1.9533233953        1.3417265332       -0.6967061190
 H         -2.3645220017        1.8362654676        0.9640607224
 H         -0.5631068731        0.5765113116        1.8741800820
 H         -0.6104724290       -1.1986551104        1.6131643881
 H          2.1967067716        0.7860241492        1.5432217286
 H          3.1836947951       -0.6955840683        1.4179965027
 H          1.6950608259       -0.6975660289        2.3985193505
 H          2.2714759005        1.0644154595       -1.2387680865
 H          1.5926523170        2.7136765770       -1.0869608643
 H          0.8305929919        1.5207185199       -2.1814051572
 H         -1.3526754262       -2.1565120015       -0.6649637619
 H          0.3856113299       -2.5465882176       -0.8563113660
 H         -0.6141362881       -2.1821584211       -2.2893928858
