  10
        -13.53417885
 C         -1.2675689904        0.7048730285       -0.0020932990
 C         -0.0000051770       -0.1135947850       -0.0000319127
 O         -0.0001074970       -1.3170922192        0.0000054972
 C          1.2676834863        0.7046940328        0.0020891988
 H         -1.2062389230        1.5034968969       -0.7367784585
 H         -2.1254922215        0.0713550858       -0.2101300366
 H         -1.3950117456        1.1572654396        0.9800004210
 H          2.1255962175        0.0708660002        0.2091845702
 H          1.2068044701        1.5025341731        0.7376473046
 H          1.3947458722        1.1580822073       -0.9795819025
