  22
        -36.57772902
 C         -4.3793609669        0.4687097208        0.0006024663
 O         -3.4257668916       -0.5813242127       -0.0001337424
 C         -2.1103453861       -0.2771189228       -0.0000372774
 C         -1.2334845866       -1.3700970241       -0.0011505021
 C          0.1265621091       -1.1768785310       -0.0011673994
 C          0.6498977644        0.1196263423       -0.0002448855
 C         -0.2237595976        1.2054143899        0.0008546263
 C         -1.5902491251        1.0177279618        0.0010681325
 C          2.0964380161        0.3737698270       -0.0006146259
 O          2.6025969314        1.4841719309       -0.0021700364
 O          2.8288936631       -0.7436541112        0.0014652469
 C          4.2474128617       -0.5879491041        0.0013363387
 H         -5.3472576900       -0.0267920059       -0.0003131816
 H         -4.2815812933        1.0886011485       -0.8932974481
 H         -4.2822807368        1.0866734316        0.8959162886
 H         -1.6578315015       -2.3610026338       -0.0021079534
 H          0.7986916860       -2.0194455511       -0.0022478970
 H          0.1941931898        2.2008273080        0.0017388191
 H         -2.2395675669        1.8773585178        0.0020735791
 H          4.6515908230       -1.5951914353        0.0157009620
 H          4.5622911150       -0.0252979246        0.8814455190
 H          4.5646221989       -0.0500818461       -0.8933065352
  22
        -36.57763669
 C         -4.3506362227       -0.6834731811       -0.0095254275
 O         -3.4488840441        0.4112251256        0.0108633713
 C         -2.1202607642        0.1710569013        0.0047745324
 C         -1.5379380806       -1.0966783274       -0.0205135544
 C         -0.1639189707       -1.2176859539       -0.0250298470
 C          0.6561967618       -0.0911629173       -0.0038881793
 C          0.0704155504        1.1780721549        0.0215136943
 C         -1.2973945283        1.3049957601        0.0256450643
 C          2.1139889018       -0.2759023757       -0.0103259398
 O          2.6683475267       -1.3628627954       -0.0365674731
 O          2.7855480792        0.8775012533        0.0228974672
 C          4.2126183662        0.8272796932        0.0199235264
 H         -5.3414468246       -0.2354191510       -0.0004238910
 H         -4.2228873179       -1.3139678692        0.8731435676
 H         -4.2239239341       -1.2798584466       -0.9157295808
 H         -2.1447617409       -1.9866814657       -0.0368223846
 H          0.3017368534       -2.1914986380       -0.0446598204
 H          0.7004934302        2.0523716813        0.0374362943
 H         -1.7692479622        2.2739991303        0.0448325032
 H          4.5714040479        0.9045517466       -1.0067990575
 H          4.5541966693       -0.1124884927        0.4559623079
 H          4.5490891005        1.6774979155        0.6069401304
  22
        -36.57760110
 C         -4.2755855715        0.8004172341        0.0008799991
 O         -3.4693039586       -0.3669683247       -0.0011327545
 C         -2.1252431179       -0.2393421829       -0.0001682129
 C         -1.4000227664       -1.4380107819       -0.0039023381
 C         -0.0270606739       -1.4180606622       -0.0036665070
 C          0.6633896075       -0.2021219144        0.0002822774
 C         -0.0588590617        0.9895308964        0.0043649970
 C         -1.4387441660        0.9758198216        0.0039841768
 C          2.1319667846       -0.2200438077       -0.0008593538
 O          2.8104031179       -1.2340895637       -0.0037412080
 O          2.6755122690        1.0010139629        0.0024127352
 C          4.1007486765        1.0747966214        0.0016369183
 H         -4.0989602237        1.3978016208        0.8979371581
 H         -5.3005234508        0.4372892371       -0.0021136606
 H         -4.0955921580        1.4032857092       -0.8918121715
 H         -1.9477720330       -2.3663270857       -0.0072117505
 H          0.5430959621       -2.3343755885       -0.0066204648
 H          0.4713320285        1.9283236325        0.0075574798
 H         -1.9722908710        1.9117866609        0.0068131706
 H          4.5000705581        0.5872815421       -0.8889702043
 H          4.5017347323        0.5771467609        0.8857906620
 H          4.3381594420        2.1339133680        0.0072879852
  22
        -36.57750270
 C         -4.2733641352        0.8043475641        0.0144382321
 O         -3.4687098337       -0.3640579741       -0.0011211671
 C         -2.1243999479       -0.2383840086       -0.0016335252
 C         -1.4010728073       -1.4379945498       -0.0208632779
 C         -0.0280824054       -1.4201138081       -0.0235273674
 C          0.6645738563       -0.2055669435       -0.0063266856
 C         -0.0558771573        0.9869992531        0.0129800852
 C         -1.4358453134        0.9754652099        0.0151655532
 C          2.1338359664       -0.2277405332       -0.0102354105
 O          2.8051652042       -1.2463991406       -0.0321512089
 O          2.6744280019        0.9931811426        0.0223598983
 C          4.0985128438        1.0997269007        0.0250177174
 H         -4.0944061996        1.3922206948        0.9172659468
 H         -5.2987947848        0.4425956003        0.0094405736
 H         -4.0940087003        1.4161630005       -0.8722867562
 H         -1.9502624008       -2.3653633538       -0.0337269797
 H          0.5405569696       -2.3372296761       -0.0388034264
 H          0.4754553573        1.9250513734        0.0259768214
 H         -1.9678691418        1.9121956395        0.0300149327
 H          4.3377189257        1.9820975172        0.6123475648
 H          4.4510011773        1.2147125515       -1.0003580320
 H          4.5391351194        0.2033211535        0.4635871092
