! r2scan-3c def2/J RI DEFGRID2 scfconv6 printgap
%output
    printlevel normal
end
* xyz 0 1
C -3.3657718053 0.8148112194 0.143955903
C -2.168963616 1.5084255622 0.1437215172
C -0.9677317673 0.8296120736 0.0167663334
C -0.9541292227 -0.55115282 -0.1097314433
C -2.160677376 -1.2429324988 -0.1079328178
C -3.3587657353 -0.5651158966 0.0175058582
C 0.3295272615 -1.3407979523 -0.2600433426
N 1.5186538833 -0.5476294768 -0.1145970041
C 2.1645103593 0.1394698947 -1.1018460201
C 3.1963673966 0.7946330206 -0.4947669183
N 3.1933875443 0.531133726 0.8411142292
C 2.1749574783 -0.2679522143 1.0315263803
H -4.3000571279 1.3458515544 0.2429323622
H -2.1648474174 2.5834550586 0.2422888181
H -0.0419152182 1.3864411467 0.0196634459
H -2.1565823 -2.3184590649 -0.205617695
H -4.2885729475 -1.1132293246 0.0180989434
H 0.3505073952 -2.1346498905 0.4926405163
H 0.3458800398 -1.8084427741 -1.2498259427
H 1.8480419192 0.103802377 -2.1232324191
H 3.9399483264 1.4341881252 -0.9262149908
H 1.8879675129 -0.6678277635 1.98312059
*
