  17
        -20.87151245
 C         -3.3490343765       -0.7453184730        0.1692808107
 C         -2.3405410109        0.2675560969       -0.3582998902
 C         -0.9655815199        0.0772669321        0.2768096825
 C          0.0498347517        1.0900317249       -0.2477743106
 C          1.4235730359        0.9168645374        0.3774105257
 Cl         2.1562694095       -0.6408726958       -0.0991703215
 H         -3.4640998445       -0.6442507944        1.2463199326
 H         -3.0182817245       -1.7590366842       -0.0452198380
 H         -4.3208092458       -0.5956294060       -0.2950907816
 H         -2.2547388387        0.1628239490       -1.4421086517
 H         -2.6984224115        1.2789423148       -0.1508009279
 H         -0.6070810318       -0.9316994208        0.0653644282
 H         -1.0508326954        0.1803972194        1.3613433725
 H         -0.2934636864        2.1032409578       -0.0219667195
 H          0.1319664202        0.9975938205       -1.3325905547
 H          2.1121694228        1.6940189274        0.0459896878
 H          1.3667281745        0.9131223365        1.4660434096
