! pbe def2-sv(p) def2/J RI DEFGRID1 loosescf d4 GCP(DFT/SV(P)) printgap
%output
    printlevel normal
end
* xyz 0 1
C -2.3246524678 0.8083823212 -0.8383409712
C -2.0384182876 -0.5760646636 -0.2665596826
C -1.2074589116 -0.5990536753 1.0215277085
C 0.3017576323 -0.3177179887 0.9464316865
C 1.0689693933 -1.2143686264 -0.042428953
C 2.1908102408 -0.3315218458 -0.583444918
C 1.5146205814 1.0297275325 -0.7085053072
C 0.693298554 1.1318168816 0.5776149385
H -3.0720516368 0.7334290952 -1.6259537665
H -2.7116373373 1.4696105494 -0.0656244216
H -1.433332601 1.2550479505 -1.2675532484
H -2.9962546234 -1.0482242943 -0.0316163346
H -1.564578096 -1.1892347786 -1.0341785217
H -1.6464373321 0.1106956148 1.7275373613
H -1.3191047994 -1.5965369973 1.4567811429
H 0.6816424388 -0.5204212483 1.9539517819
H 1.4432231266 -2.1182587116 0.4367229688
H 0.4233887024 -1.515035749 -0.8666005472
H 3.0076636817 -0.2747604563 0.1381211941
H 2.5895858155 -0.6952176532 -1.5296270459
H 2.2260929426 1.847900616 -0.8128181347
H 0.8603539984 1.0311440188 -1.5820592804
H 1.3149046051 1.5531227621 1.3693928229
H -0.1740403042 1.7766198 0.466827673
*
