  13
        -20.95475646
 C         -1.9920330136       -0.6059321534       -0.6206544778
 C         -1.4966247574        0.5377023199        0.2559245728
 C         -0.2186967541        0.1620263975        1.0047744920
 N          0.8990012547        0.0177676946        0.0512752514
 O          1.1588073836        0.9720210667       -0.6397708005
 O          1.4787931608       -1.0401450669        0.0298404596
 H         -2.9105268383       -0.3201632421       -1.1259130305
 H         -1.2551073928       -0.8625948620       -1.3784032792
 H         -2.1914475916       -1.4916404182       -0.0213941815
 H         -2.2613034672        0.8024801365        0.9874203623
 H         -1.2931584188        1.4173036108       -0.3579986663
 H          0.0538346568        0.9570051976        1.7031181886
 H         -0.3248803147       -0.7856667098        1.5353145687
  13
        -20.95421804
 C         -2.7287808017       -0.2010615955        0.0525611032
 C         -1.3008558150       -0.1943890435       -0.4760547980
 C         -0.3046546806        0.1042574479        0.6486893058
 N          1.0530933502        0.0976493687        0.0818448377
 O          1.4773406855        1.1424864844       -0.3480989436
 O          1.6341662760       -0.9597372467        0.0527900490
 H         -3.4234353595       -0.4136272013       -0.7552399015
 H         -2.8508797252       -0.9619656979        0.8196037440
 H         -2.9846994437        0.7652746588        0.4801972288
 H         -1.1985245387        0.5653709442       -1.2536978083
 H         -1.0639526508       -1.1668250978       -0.9127199184
 H         -0.4950885784        1.0921928021        1.0711443321
 H         -0.3590862745       -0.6682983221        1.4174298107
  13
        -20.95418472
 C         -2.7281934295       -0.2595056603        0.0790787635
 C         -1.2999064478       -0.3026505308       -0.4466482105
 C         -0.3193951804        0.2501815116        0.5905123379
 N          1.0519680037        0.1328759347        0.0665201949
 O          1.6127737735        1.1499280918       -0.2605764231
 O          1.5113334807       -0.9798299146       -0.0207226091
 H         -3.4120617354       -0.6520277936       -0.6682336590
 H         -2.8241104961       -0.8592377820        0.9809288960
 H         -3.0220687070        0.7615764669        0.3102479318
 H         -1.2270404694        0.2879928880       -1.3622984047
 H         -1.0200993306       -1.3318889992       -0.6799061590
 H         -0.5156111418        1.3036994968        0.7954528101
 H         -0.3817055142       -0.3390598618        1.5079441744
  13
        -20.95403431
 C         -2.7577287269       -0.1763218868       -0.0006242038
 C         -1.3699549632        0.4005991769       -0.2497200633
 C         -0.2937238655       -0.5408312514        0.2672372054
 N          1.0710860810       -0.0191263519        0.0449553360
 O          1.1939335709        1.0490091751       -0.4990305063
 O          1.9785409362       -0.7158862781        0.4326847762
 H         -2.9260808554       -0.3290413817        1.0628975795
 H         -3.5182967152        0.5039235037       -0.3728475028
 H         -2.8746315013       -1.1311165977       -0.5080211284
 H         -1.2747596441        1.3668728983        0.2480820287
 H         -1.2229635934        0.5659698366       -1.3181757844
 H         -0.3950151975       -0.7115507338        1.3427422268
 H         -0.3436090664       -1.5149233607       -0.2275567855
  13
        -20.95394453
 C         -2.7465415398       -0.2597396685        0.1068335150
 C         -1.3041656429       -0.5494690488       -0.2867824993
 C         -0.3586832137        0.4802308352        0.3199814269
 N          1.0556275102        0.1757172445        0.0206291364
 O          1.7964693411        1.1188687532       -0.1180495602
 O          1.3809528987       -0.9832737089       -0.0467631341
 H         -3.0482127818        0.7268626696       -0.2371729980
 H         -3.4106428644       -0.9950522951       -0.3384002903
 H         -2.8664760111       -0.2994672198        1.1868778532
 H         -1.2089129837       -0.5309954473       -1.3741735382
 H         -1.0161032582       -1.5437399533        0.0573135424
 H         -0.5584219122        1.4899109485       -0.0442221933
 H         -0.4535073771        0.4785010038        1.4105856689
  13
        -20.95281651
 C         -2.1537999745        0.6620709637       -0.5688658059
 C         -1.5124454609       -0.5063953579        0.1701075505
 C         -0.2468683284       -0.1095894299        0.9308615413
 N          0.9428310051       -0.0448597839        0.0572700320
 O          0.8233026319        0.4471347705       -1.0367415361
 O          1.9708313975       -0.4865816300        0.5122296169
 H         -3.0504597324        0.3281083032       -1.0840888711
 H         -2.4327354272        1.4489914122        0.1288324468
 H         -1.4669901319        1.0710416068       -1.3039738873
 H         -1.2708889657       -1.3001743275       -0.5393419195
 H         -2.2224516274       -0.9120993178        0.8930275390
 H         -0.3714854235        0.8846972435        1.3698306765
 H         -0.0094847865       -0.8201754362        1.7249384181
