  13
  -20.9547564600000       4.807603454024521E-002 !mtd14
 C         -1.9920330136       -0.6059321534       -0.6206544778
 C         -1.4966247574        0.5377023199        0.2559245728
 C         -0.2186967541        0.1620263975        1.0047744920
 N          0.8990012547        0.0177676946        0.0512752514
 O          1.1588073836        0.9720210667       -0.6397708005
 O          1.4787931608       -1.0401450669        0.0298404596
 H         -2.9105268383       -0.3201632421       -1.1259130305
 H         -1.2551073928       -0.8625948620       -1.3784032792
 H         -2.1914475916       -1.4916404182       -0.0213941815
 H         -2.2613034672        0.8024801365        0.9874203623
 H         -1.2931584188        1.4173036108       -0.3579986663
 H          0.0538346568        0.9570051976        1.7031181886
 H         -0.3248803147       -0.7856667098        1.5353145687
  13
  -20.9547564500000       4.807552580495807E-002 !mtd9
 C         -2.0151877529       -0.2029616196       -0.7865529431
 C         -1.4459775336       -0.3457065328        0.6196108977
 C         -0.2421416693        0.5700720627        0.8366785372
 N          0.8937170435        0.1112566787        0.0128498485
 O          1.3683618146        0.8990758027       -0.7681439448
 O          1.2724005355       -1.0218853025        0.1807934628
 H         -2.8797657927       -0.8496975095       -0.9084021101
 H         -2.3249272455        0.8228522170       -0.9741132353
 H         -1.2766670263       -0.4811872226       -1.5351160526
 H         -1.1329169214       -1.3772634326        0.7925214376
 H         -2.2100102504       -0.0936918217        1.3562644364
 H         -0.4616327083        1.6005257500        0.5523159589
 H          0.0783400146        0.5267475876        1.8804013061
  13
  -20.9547564500000       4.807552580495807E-002 !mtd5
 C         -1.9905863341       -0.6370243459        0.5942618144
 C         -1.4973305452        0.5506782491       -0.2229163384
 C         -0.2217469928        0.2143917606       -0.9940936291
 N          0.8988944396        0.0202148587       -0.0529893173
 O          1.1592953227        0.9357213373        0.6884122125
 O          1.4804528666       -1.0363060605       -0.0911171246
 H         -2.1919356157       -1.4902043410       -0.0498245692
 H         -1.2516275816       -0.9329448080        1.3355331621
 H         -2.9075594332       -0.3779296342        1.1163076304
 H         -1.2918228925        1.3969672975        0.4355418261
 H         -2.2640316851        0.8534204438       -0.9373740629
 H         -0.3297356789       -0.7041713334       -1.5732809264
 H          0.0490363719        1.0447178087       -1.6507739717
  13
  -20.9547564400000       4.807501707487358E-002 !gc
 C         -1.9915351672       -0.6056462957       -0.6210228054
 C         -1.4966177772        0.5376841493        0.2562625071
 C         -0.2186620644        0.1620033981        1.0050166517
 N          0.8989278754        0.0177703477        0.0513211124
 O          1.1583260441        0.9717969469       -0.6401271417
 O          1.4788236668       -1.0401446857        0.0299944145
 H         -1.2541630661       -0.8619664369       -1.3784361490
 H         -2.1912401177       -1.4916225032       -0.0222674073
 H         -2.9097232258       -0.3197345770       -1.1267377703
 H         -2.2614471110        0.8016986447        0.9878610016
 H         -1.2934811083        1.4177476013       -0.3571109479
 H          0.0539485042        0.9569268623        1.7033804114
 H         -0.3247363062       -0.7857270310        1.5355065864
  13
  -20.9547564400000       4.807501707487358E-002 !gc
 C         -2.0157814729       -0.2031453758       -0.7863292023
 C         -1.4458998587       -0.3459368735        0.6195762834
 C         -0.2422628618        0.5701838799        0.8362354413
 N          0.8938720438        0.1113897777        0.0128310769
 O          1.3689001694        0.8991999202       -0.7678680562
 O          1.2723265259       -1.0218610795        0.1807418697
 H         -2.3261858115        0.8225165955       -0.9734601097
 H         -1.2775222478       -0.4807294416       -1.5353537479
 H         -2.8800723228       -0.8502797923       -0.9079519604
 H         -1.1323588743       -1.3773968124        0.7921784603
 H         -2.2095669135       -0.0943049828        1.3567390289
 H         -0.4619758020        1.6004726856        0.5514468619
 H          0.0781708717        0.5274051175        1.8800001243
  13
  -20.9547564400000       4.807501707487358E-002 !gc
 C         -1.9911856330       -0.6368859391        0.5941390864
 C         -1.4972839933        0.5507145709       -0.2228196815
 C         -0.2218565547        0.2137223522       -0.9939427768
 N          0.8989767211        0.0202035595       -0.0529751054
 O          1.1595720567        0.9361142657        0.6877805455
 O          1.4807263720       -1.0362408307       -0.0906023327
 H         -1.2523977484       -0.9333674089        1.3353541638
 H         -2.9079990573       -0.3772330937        1.1162259452
 H         -2.1930978348       -1.4898856707       -0.0500439835
 H         -1.2912660622        1.3968469167        0.4356792675
 H         -2.2637828113        0.8539717046       -0.9372657032
 H         -0.3299762290       -0.7052706540       -1.5724170290
 H          0.0488579111        1.0435728907       -1.6512327980
  13
  -20.9547564300000       4.807450835017241E-002 !mtd9
 C         -1.9887586144       -0.6476022562       -0.5867348346
 C         -1.4983737294        0.5508119752        0.2164211549
 C         -0.2220655944        0.2264533521        0.9915694459
 N          0.8986459545        0.0223442531        0.0527603022
 O          1.4808996156       -1.0332624348        0.1027448068
 O          1.1585651418        0.9296196847       -0.6988674141
 H         -2.9063731321       -0.3967822014       -1.1117658984
 H         -1.2490485931       -0.9502416829       -1.3245313914
 H         -2.1879971734       -1.4938202050        0.0671824980
 H         -2.2658959708        0.8599773263        0.9272350804
 H         -1.2947904849        1.3898696055       -0.4518119551
 H          0.0473269344        1.0654728930        1.6376631338
 H         -0.3284981899       -0.6849436198        1.5822546569
  13
  -20.9547564300000       4.807450835017241E-002 !mtd6
 C         -2.0149560137       -0.2053942013       -0.7863142987
 C         -1.4461888588       -0.3448796244        0.6203806348
 C         -0.2423602423        0.5712443129        0.8357237360
 N          0.8936572280        0.1116102306        0.0125929593
 O          1.3704601568        0.8996352097       -0.7668470140
 O          1.2705037588       -1.0222894428        0.1796633400
 H         -1.2768438093       -0.4871286856       -1.5339260079
 H         -2.8806430877       -0.8509577303       -0.9063800987
 H         -2.3228960761        0.8203587829       -0.9769851633
 H         -1.1332963255       -1.3760607985        0.7957061340
 H         -2.2103420022       -0.0910599492        1.3562908013
 H         -0.4618972185        1.6013082142        0.5499709342
 H          0.0783316215        0.5296127922        1.8794786880
  13
  -20.9547564300000       4.807450835017241E-002 !mtd6
 C         -1.9880499236       -0.6604264360       -0.5752763532
 C         -1.4988323578        0.5543929478        0.2036059748
 C         -0.2232431212        0.2464224907        0.9864945948
 N          0.8986640601        0.0238905874        0.0531604762
 O          1.4818641429       -1.0299647860        0.1256894559
 O          1.1583741093        0.9155520330       -0.7169490586
 H         -1.2476076301       -0.9777245080       -1.3061789714
 H         -2.1873148565       -1.4933150223        0.0956549426
 H         -2.9053080638       -0.4208577405       -1.1060676878
 H         -2.2671141537        0.8780711826        0.9070923328
 H         -1.2946311280        1.3795252108       -0.4815468465
 H          0.0451140866        1.0984278612        1.6158313027
 H         -0.3298924678       -0.6529405549        1.5953284111
  13
  -20.9547564100000       4.807349091710057E-002 !mtd11
 C         -1.9908398943       -0.6386696899        0.5928798118
 C         -1.4972396028        0.5508785621       -0.2213809067
 C         -0.2217919013        0.2161437217       -0.9935465463
 N          0.8989832457        0.0204964836       -0.0530478048
 O          1.1603886616        0.9354139308        0.6887885195
 O          1.4795035781       -1.0364737769       -0.0920034599
 H         -2.9069732135       -0.3801959562        1.1168595291
 H         -2.1938696265       -1.4898041374       -0.0534994438
 H         -1.2512152563       -0.9375304632        1.3322799741
 H         -1.2912741356        1.3954619314        0.4391218708
 H         -2.2639391973        0.8557214740       -0.9349328061
 H         -0.3301480017       -0.7014204927       -1.5742473408
 H          0.0486951904        1.0475938165       -1.6488916122
  13
  -20.9547564000000       4.807298220854903E-002 !mtd2
 C         -1.9915318410       -0.6338161652       -0.5978131459
 C         -1.4975189815        0.5466498229        0.2293134273
 C         -0.2212016754        0.2032449417        0.9960932826
 N          0.8991560086        0.0208814392        0.0522261213
 O          1.4814974993       -1.0355417521        0.0777627445
 O          1.1585713785        0.9451912576       -0.6785374781
 H         -2.1935613658       -1.4923063316        0.0390047840
 H         -2.9082815196       -0.3695746900       -1.1177240617
 H         -1.2526911996       -0.9239953211       -1.3414706106
 H         -2.2635495493        0.8431816916        0.9470801285
 H         -1.2924354944        1.3987521582       -0.4217533483
 H          0.0489885848        1.0265335376        1.6617785197
 H         -0.3278570119       -0.7218473299        1.5650553816
  13
  -20.9547563600000       4.807094742835408E-002 !gc
 C         -1.9917880909       -0.6081364729       -0.6192493372
 C         -1.4966169143        0.5375416967        0.2547711221
 C         -0.2186620522        0.1636116622        1.0045753690
 N          0.8988982208        0.0182535820        0.0512093328
 O          1.1612124813        0.9731885733       -0.6379672882
 O          1.4762357304       -1.0409691472        0.0279905800
 H         -2.1910728430       -1.4925529037       -0.0180365436
 H         -2.9103307528       -0.3235969492       -1.1251048089
 H         -1.2548370439       -0.8663943117       -1.3764286515
 H         -2.2613540033        0.8037938754        0.9856614238
 H         -1.2932664623        1.4158968957       -0.3610156571
 H          0.0533056830        0.9599651631        1.7015317291
 H         -0.3246096737       -0.7833006279        1.5365621354
  13
  -20.9542180400000       2.719492959540499E-002 !md7
 C         -2.7287808017       -0.2010615955        0.0525611032
 C         -1.3008558150       -0.1943890435       -0.4760547980
 C         -0.3046546806        0.1042574479        0.6486893058
 N          1.0530933502        0.0976493687        0.0818448377
 O          1.4773406855        1.1424864844       -0.3480989436
 O          1.6341662760       -0.9597372467        0.0527900490
 H         -3.4234353595       -0.4136272013       -0.7552399015
 H         -2.8508797252       -0.9619656979        0.8196037440
 H         -2.9846994437        0.7652746588        0.4801972288
 H         -1.1985245387        0.5653709442       -1.2536978083
 H         -1.0639526508       -1.1668250978       -0.9127199184
 H         -0.4950885784        1.0921928021        1.0711443321
 H         -0.3590862745       -0.6682983221        1.4174298107
  13
  -20.9542180200000       2.719435405076352E-002 !mtd5
 C         -2.7286982040       -0.2003896109        0.0523998071
 C         -1.3009015054       -0.1924662635       -0.4765372707
 C         -0.3044863263        0.1019828963        0.6491529503
 N          1.0530730664        0.0971034780        0.0820457483
 O          1.4753747770        1.1422303405       -0.3490899317
 O          1.6359732015       -0.9592848392        0.0537652168
 H         -2.9839745492        0.7642454274        0.4843274265
 H         -3.4235849891       -0.4089511668       -0.7562501365
 H         -2.8512257092       -0.9645849291        0.8160861102
 H         -1.1983868755        0.5700579897       -1.2514339636
 H         -1.0644035082       -1.1634403996       -0.9166986950
 H         -0.4947475410        1.0885575681        1.0749328261
 H         -0.3589838939       -0.6731076259        1.4153595289
  13
  -20.9542179900000       2.719349075674218E-002 !mtd1
 C         -2.7235476811       -0.2529885136       -0.0930426298
 C         -1.3346233173        0.1326157700        0.3974568026
 C         -0.2574024894       -0.3535781052       -0.5771875194
 N          1.0584331671        0.0460358226       -0.0541220330
 O          1.4739621986        1.1323399001       -0.3763121924
 O          1.6144427245       -0.7244738928        0.6899562967
 H         -2.8129998815       -1.3329083551       -0.1829044289
 H         -3.4761644486        0.0963701558        0.6082662411
 H         -2.9256045641        0.1927831526       -1.0640509184
 H         -1.1533027278       -0.3106486589        1.3787832884
 H         -1.2648792351        1.2181416461        0.4928399377
 H         -0.2797259301       -1.4418044952       -0.6542659200
 H         -0.3935325638        0.1118519425       -1.5547231017
  13
  -20.9542178800000       2.719032557972564E-002 !gc
 C         -2.7285263208       -0.2043708642        0.0534963949
 C         -1.3004670764       -0.2003129954       -0.4747531235
 C         -0.3052119885        0.1123678399        0.6470386914
 N          1.0529122341        0.0996560942        0.0813476609
 O          1.4844163860        1.1433892947       -0.3440288510
 O          1.6271736171       -0.9613779546        0.0486098382
 H         -2.8489718432       -0.9564437803        0.8294382067
 H         -2.9869810178        0.7663371637        0.4695950931
 H         -3.4224073350       -0.4281737753       -0.7519441547
 H         -1.1996816602        0.5511434874       -1.2606399855
 H         -1.0612256061       -1.1769134417       -0.9007009012
 H         -0.4962060990        1.1049094756        1.0582329279
 H         -0.3600180526       -0.6515303647        1.4244060699
  13
  -20.9542177400000       2.718629770534835E-002 !gc
 C         -2.7227904207       -0.2592144951       -0.0919221911
 C         -1.3334164259        0.1131138920        0.4074889590
 C         -0.2591093840       -0.3265971075       -0.5920941898
 N          1.0579841631        0.0515517242       -0.0562655689
 O          1.4890527268        1.1362493509       -0.3629108378
 O          1.5994877007       -0.7346593329        0.6821082508
 H         -3.4735532198        0.0589829507        0.6259698658
 H         -2.9311985572        0.2236537979       -1.0435763826
 H         -2.8080554050       -1.3350939278       -0.2239604167
 H         -1.1442819527       -0.3699850319        1.3683616564
 H         -1.2690347905        1.1941271970        0.5480159468
 H         -0.2802011213       -1.4105414196       -0.7164824731
 H         -0.3988612293        0.1806793661       -1.5480109839
  13
  -20.9542177200000       2.718572234338939E-002 !gc
 C         -2.7227330511       -0.2598777360       -0.0914738807
 C         -1.3335669431        0.1154194808        0.4062965561
 C         -0.2590155695       -0.3278488107       -0.5914621066
 N          1.0579994469        0.0512075904       -0.0561281385
 O          1.4880320164        1.1363361529       -0.3627121193
 O          1.6004891114       -0.7347079696        0.6818364752
 H         -2.9313992222        0.2185683161       -1.0453011738
 H         -2.8074003086       -1.3363893425       -0.2186627644
 H         -3.4736818551        0.0611196817        0.6249802718
 H         -1.1441715067       -0.3635555440        1.3691884101
 H         -1.2697519736        1.1970384297        0.5422899211
 H         -0.2805815962       -1.4121386493       -0.7126756670
 H         -0.3981137955        0.1767013441       -1.5489171361
  13
  -20.9541847200000       2.625276959553110E-002 !gc
 C         -2.7281934295       -0.2595056603        0.0790787635
 C         -1.2999064478       -0.3026505308       -0.4466482105
 C         -0.3193951804        0.2501815116        0.5905123379
 N          1.0519680037        0.1328759347        0.0665201949
 O          1.6127737735        1.1499280918       -0.2605764231
 O          1.5113334807       -0.9798299146       -0.0207226091
 H         -3.4120617354       -0.6520277936       -0.6682336590
 H         -2.8241104961       -0.8592377820        0.9809288960
 H         -3.0220687070        0.7615764669        0.3102479318
 H         -1.2270404694        0.2879928880       -1.3622984047
 H         -1.0200993306       -1.3318889992       -0.6799061590
 H         -0.5156111418        1.3036994968        0.7954528101
 H         -0.3817055142       -0.3390598618        1.5079441744
  13
  -20.9541836700000       2.622361622208036E-002 !gc
 C         -2.7284764034       -0.2580049333        0.0787136431
 C         -1.2997245744       -0.3061818525       -0.4452938536
 C         -0.3196184507        0.2518597541        0.5894116729
 N          1.0519787269        0.1332446435        0.0662568639
 O          1.6138231594        1.1497468932       -0.2607755934
 O          1.5105810412       -0.9798360716       -0.0201602718
 H         -3.0213704438        0.7649084644        0.3029431113
 H         -3.4120639916       -0.6545503990       -0.6667275550
 H         -2.8260196946       -0.8517363918        0.9843524897
 H         -1.2252795185        0.2787595028       -1.3644791708
 H         -1.0208679522       -1.3371220060       -0.6720259180
 H         -0.5164876146        1.3061367806        0.7897978366
 H         -0.3816054419       -0.3332924392        1.5094972497
  13
  -20.9540343100000       2.238986510412941E-002 !mtd8
 C         -2.7577287269       -0.1763218868       -0.0006242038
 C         -1.3699549632        0.4005991769       -0.2497200633
 C         -0.2937238655       -0.5408312514        0.2672372054
 N          1.0710860810       -0.0191263519        0.0449553360
 O          1.1939335709        1.0490091751       -0.4990305063
 O          1.9785409362       -0.7158862781        0.4326847762
 H         -2.9260808554       -0.3290413817        1.0628975795
 H         -3.5182967152        0.5039235037       -0.3728475028
 H         -2.8746315013       -1.1311165977       -0.5080211284
 H         -1.2747596441        1.3668728983        0.2480820287
 H         -1.2229635934        0.5659698366       -1.3181757844
 H         -0.3950151975       -0.7115507338        1.3427422268
 H         -0.3436090664       -1.5149233607       -0.2275567855
  13
  -20.9540343000000       2.238962817696584E-002 !mtd11
 C         -2.7535149843       -0.2332248455        0.0116940891
 C         -1.2906931930       -0.6559147619        0.0597172111
 C         -0.3758206549        0.5530705406       -0.0551071931
 N          1.0555971340        0.1874655125       -0.0143196735
 O          1.8422643277        1.0999823715       -0.1025455355
 O          1.3459820150       -0.9761431534        0.1023606695
 H         -2.9859194300        0.4434800801        0.8307163653
 H         -2.9781293429        0.2709340890       -0.9253850808
 H         -3.3976987358       -1.1038208806        0.0943740823
 H         -1.0776872881       -1.3492718852       -0.7554147192
 H         -1.0854141715       -1.1771732406        0.9960403916
 H         -0.5379216760        1.0891926207       -0.9944792920
 H         -0.5441294529        1.2605308115        0.7617883832
  13
  -20.9540342100000       2.238749594548004E-002 !mtd3
 C         -2.7534969548       -0.2331931428        0.0122985156
 C         -1.2906421690       -0.6562192236        0.0565477033
 C         -0.3758998440        0.5535146812       -0.0508833322
 N          1.0556483058        0.1875094529       -0.0138014557
 O          1.8422517390        1.0999913788       -0.1028251349
 O          1.3459556302       -0.9763633702        0.1004502439
 H         -2.9786667488        0.2774412553       -0.9211209420
 H         -3.3976302839       -1.1043203158        0.0893512979
 H         -2.9854922220        0.4378083980        0.8360848296
 H         -1.0781225410       -1.3442312823       -0.7632582573
 H         -1.0847679843       -1.1835334580        0.9893296827
 H         -0.5388507932        1.0963068642       -0.9862162848
 H         -0.5433412055        1.2550999066        0.7712651817
  13
  -20.9540341300000       2.238560079909219E-002 !mtd3
 C         -2.7534959920       -0.2330500889        0.0135647742
 C         -1.2906435619       -0.6565710455        0.0525393136
 C         -0.3758618786        0.5538563820       -0.0466899912
 N          1.0556012977        0.1875260092       -0.0136594614
 O          1.8422240003        1.1000022861       -0.1025211998
 O          1.3459931966       -0.9765365280        0.0984334896
 H         -3.3976482346       -1.1046651982        0.0849976547
 H         -2.9841470127        0.4318155874        0.8427124737
 H         -2.9799308789        0.2845896609       -0.9156937328
 H         -1.0794134518       -1.3380786463       -0.7730073406
 H         -1.0835223692       -1.1913565440        0.9807758894
 H         -0.5396626141        1.1040310664       -0.9775450472
 H         -0.5424972576        1.2489967828        0.7811177510
  13
  -20.9540341100000       2.238512703752055E-002 !mtd13
 C         -2.7577776830       -0.1756884341        0.0006205677
 C         -1.3700137349        0.4014049891       -0.2481185959
 C         -0.2935304604       -0.5436571304        0.2616613544
 N          1.0710722859       -0.0192937916        0.0446360438
 O          1.1939456780        1.0491482865       -0.4986750252
 O          1.9784619449       -0.7145577093        0.4352109345
 H         -2.8766436756       -1.1274432474       -0.5119952012
 H         -2.9239672631       -0.3343588935        1.0636152657
 H         -3.5185283289        0.5073830313       -0.3660270110
 H         -1.2730400054        1.3648341672        0.2548484680
 H         -1.2250314187        0.5725925979       -1.3159115676
 H         -0.3954394187       -0.7239068056        1.3355317787
 H         -0.3424740368       -1.5134136568       -0.2417186564
  13
  -20.9540338800000       2.237967950055534E-002 !mtd6
 C         -2.7578339467       -0.1744175620        0.0030249398
 C         -1.3696382013        0.3956722968       -0.2591218271
 C         -0.2939954109       -0.5365838030        0.2754217472
 N          1.0710448221       -0.0187663945        0.0456377457
 O          1.1939116528        1.0499181900       -0.4973055720
 O          1.9786767369       -0.7185882531        0.4274616812
 H         -3.5179087901        0.4981227874       -0.3839109475
 H         -2.8757483288       -1.1400841877       -0.4831218991
 H         -2.9260124667       -0.3034514777        1.0697112524
 H         -1.2726591027        1.3715717497        0.2191318335
 H         -1.2236438122        0.5394379965       -1.3308589548
 H         -0.3965823469       -0.6867557969        1.3539630896
 H         -0.3433210748       -1.5198446391       -0.2007282042
  13
  -20.9539445300000       2.036064096763342E-002 !mtd10
 C         -2.7465415398       -0.2597396685        0.1068335150
 C         -1.3041656429       -0.5494690488       -0.2867824993
 C         -0.3586832137        0.4802308352        0.3199814269
 N          1.0556275102        0.1757172445        0.0206291364
 O          1.7964693411        1.1188687532       -0.1180495602
 O          1.3809528987       -0.9832737089       -0.0467631341
 H         -3.0482127818        0.7268626696       -0.2371729980
 H         -3.4106428644       -0.9950522951       -0.3384002903
 H         -2.8664760111       -0.2994672198        1.1868778532
 H         -1.2089129837       -0.5309954473       -1.3741735382
 H         -1.0161032582       -1.5437399533        0.0573135424
 H         -0.5584219122        1.4899109485       -0.0442221933
 H         -0.4535073771        0.4785010038        1.4105856689
  13
  -20.9539405900000       2.027592831654389E-002 !gc
 C         -2.7451587422       -0.2865539889       -0.0894408952
 C         -1.3103848191       -0.4701105194        0.3872918846
 C         -0.3535302369        0.3946236984       -0.4239473065
 N          1.0563337879        0.1688962493       -0.0435695342
 O          1.8023420655        1.1129958737       -0.1427885814
 O          1.3737994497       -0.9363743491        0.3184315945
 H         -3.4175983639       -0.9011243807        0.5022992841
 H         -3.0535538157        0.7516601444        0.0096673985
 H         -2.8443631011       -0.5771903305       -1.1326468962
 H         -1.0159439964       -1.5158489933        0.2887633202
 H         -1.2358289272       -0.1997142548        1.4423493189
 H         -0.4322168321        0.1450351097       -1.4870485699
 H         -0.5560298713        1.4607452125       -0.3033863991
  13
  -20.9539368600000       2.019605560904442E-002 !mtd8
 C         -2.7529216678       -0.1967713412       -0.0874294813
 C         -1.3753356907        0.4461423194        0.0047374847
 C         -0.2827272656       -0.6151020289        0.0291181235
 N          1.0702362052       -0.0210449295        0.0235467121
 O          1.2231294604        1.0331100487       -0.5409620257
 O          1.9401668034       -0.6512062279        0.5748596413
 H         -3.5233288549        0.5689687445       -0.0912805850
 H         -2.8454125756       -0.7802208042       -1.0005010737
 H         -2.9280927978       -0.8545377620        0.7608171343
 H         -1.3113958607        1.0520165276        0.9106231610
 H         -1.2138977072        1.1049859512       -0.8495767820
 H         -0.3508738507       -1.2592952348        0.9081404857
 H         -0.3490574649       -1.2434327781       -0.8651074002
  13
  -20.9528165100000       6.171480298169609E-003 !gc
 C         -2.1537999745        0.6620709637       -0.5688658059
 C         -1.5124454609       -0.5063953579        0.1701075505
 C         -0.2468683284       -0.1095894299        0.9308615413
 N          0.9428310051       -0.0448597839        0.0572700320
 O          0.8233026319        0.4471347705       -1.0367415361
 O          1.9708313975       -0.4865816300        0.5122296169
 H         -3.0504597324        0.3281083032       -1.0840888711
 H         -2.4327354272        1.4489914122        0.1288324468
 H         -1.4669901319        1.0710416068       -1.3039738873
 H         -1.2708889657       -1.3001743275       -0.5393419195
 H         -2.2224516274       -0.9120993178        0.8930275390
 H         -0.3714854235        0.8846972435        1.3698306765
 H         -0.0094847865       -0.8201754362        1.7249384181
  13
  -20.9528153500000       6.163909416576851E-003 !gc
 C         -2.1535429862        0.6564652341       -0.5735647832
 C         -1.5118368773       -0.5057218412        0.1749103435
 C         -0.2462410601       -0.1020938795        0.9323867253
 N          0.9426194084       -0.0438751074        0.0573914469
 O          0.8245293480        0.4504273358       -1.0357866989
 O          1.9684767038       -0.4928878033        0.5099917054
 H         -1.4665967979        1.0605894770       -1.3111649012
 H         -3.0494333522        0.3176797755       -1.0868705273
 H         -2.4337918818        1.4483224899        0.1179051087
 H         -1.2699814382       -1.3054341360       -0.5278470954
 H         -2.2215932673       -0.9057380410        0.9013251730
 H         -0.3716326459        0.8954705943        1.3636295173
 H         -0.0084106203       -0.8068935677        1.7315147948
