! r2scan-3c def2/J RI DEFGRID2 scfconv6 printgap
%output
    printlevel normal
end
* xyz 0 1
C 2.5279538683 -0.3345143192 0.0003865133
C 1.2677369552 0.5228575823 -0.0007544544
C -1.768e-06 -0.3283971077 -9.2412e-05
C -1.267739248 0.5228484829 0.0007422221
C -2.5279539872 -0.3345126192 -0.0002949612
H 3.4168554105 0.2915129254 -2.6752e-05
H 2.5553336585 -0.9717970784 -0.8806759244
H 2.5549298641 -0.9699210837 0.8827733364
H 1.267570485 1.1691713655 0.8800375304
H 1.2678680037 1.1673585863 -0.882866255
H 0.0005278229 -0.9741061147 0.8814376938
H -0.0005038912 -0.9739273825 -0.8817616079
H -1.2677766585 1.16727467 0.8829089386
H -1.267641063 1.1692611485 -0.8799680569
H -2.5548436745 -0.9702039883 -0.8825414598
H -3.4168689304 0.2915470819 -0.0001120999
H -2.555401217 -0.9715400402 0.8809506745
*
