! pbe def2-sv(p) def2/J RI DEFGRID1 loosescf d4 GCP(DFT/SV(P)) printgap
%output
    printlevel normal
end
* xyz 0 1
C 0.5227443405 1.932447316 0.3456062069
C 1.8709776796 2.1822983201 0.4224169005
C 2.8141698502 1.1731671608 0.1959778545
C 2.3501861613 -0.1180101442 -0.1177629988
C 0.97258137 -0.3530288488 -0.1833441333
C 0.049380773 0.6498615307 0.0438338075
C -1.3967874436 0.3929841593 -0.0382855962
C -2.2463713572 1.2919117344 -0.6835618311
C -3.6072285799 1.0676263462 -0.775667407
C -4.1287286106 -0.0777539578 -0.205139818
C -3.3367422325 -0.997923694 0.4539803115
C -1.9810718385 -0.7409425407 0.5213018195
F -1.2125694373 -1.6353990088 1.1960392969
F -5.4640236195 -0.312839616 -0.2880264225
C 3.2187726726 -1.2712073943 -0.3953866561
O 2.8067730725 -2.3724880165 -0.7104741114
O 4.5306450524 -1.0376949562 -0.2814608463
O 4.1015104487 1.5237108849 0.2944136279
H -0.1798273994 2.7266737911 0.5416416874
H 2.2439208081 3.1646656545 0.6632203513
H 0.6578203166 -1.3549683073 -0.4343664496
H -1.8221923961 2.1730936119 -1.1362318498
H -4.2586751767 1.7611269874 -1.2804350104
H -3.7553469439 -1.8825378832 0.9036130705
H 5.0595088178 -1.8356811394 -0.4749227413
H 4.6938212211 0.7662626916 0.1321409258
*
