  27
        -30.37850178
 C          3.7180920787        1.2616963684        0.3021928373
 C          2.2834447305        0.8423946375        0.0095656573
 C          2.1978677503       -0.6161993777       -0.4331521581
 C          0.7572071689       -1.0438648546       -0.6930682861
 O          0.0515532311       -1.0141828699        0.5282367208
 C         -1.2678219025       -1.4981907950        0.4639047524
 C         -2.2529492665       -0.5631595892       -0.2465869595
 C         -2.2805696867        0.8200812050        0.3987961799
 C         -3.2156451619        1.7718051341       -0.3359014729
 H          3.7560596918        2.3025499448        0.6149658414
 H          4.1396930289        0.6493276556        1.0960431465
 H          4.3386663332        1.1467311867       -0.5843686959
 H          1.6717889461        0.9680383757        0.9037710417
 H          1.8700498765        1.4816673754       -0.7744884748
 H          2.7777532778       -0.7645477743       -1.3465478752
 H          2.6129598345       -1.2557985322        0.3471647706
 H          0.2987621875       -0.3654376183       -1.4273869257
 H          0.7322260298       -2.0640933035       -1.1104411060
 H         -1.5695815010       -1.6189731063        1.5082977080
 H         -1.2827810888       -2.4866273809       -0.0232568742
 H         -3.2446137956       -1.0179721732       -0.2014993281
 H         -1.9797216404       -0.4698130830       -1.2999371597
 H         -1.2676714775        1.2267620932        0.4024914388
 H         -2.6000171142        0.7223801322        1.4385947510
 H         -3.2212505272        2.7477472659        0.1436802161
 H         -2.8989640770        1.8998004102       -1.3690828880
 H         -4.2322419802        1.3836682707       -0.3366526782
