  7
        -26.71838015
 C          0.2036241040       -0.0002431404       -0.0064788289
 N         -1.3372001229        0.0026155259       -0.2114671469
 O         -1.8470656064        1.0769860808       -0.2582049022
 O         -1.8510546431       -1.0698799480       -0.2578683688
 Cl         0.8613529779       -1.4599259847       -0.7219895856
 Cl         0.8669154112        1.4576519211       -0.7200115239
 Cl         0.3999502939       -0.0018837901        1.7606380878
  7
        -26.71813940
 C          0.1980519434        0.0218331774        0.0237134431
 N         -1.3413402619        0.0105441758       -0.2084008163
 O         -1.8049485430        0.9679807951       -0.7397730338
 O         -1.8943095734       -0.9722941737        0.1738913596
 Cl         0.8376556260       -1.3531187395       -0.8872533945
 Cl         0.8531056744        1.5417195257       -0.5430692446
 Cl         0.4414943355       -0.1982167830        1.7599972169
