  7
  -26.7183801500000       0.132481924160769      !md3
 C          0.2036241040       -0.0002431404       -0.0064788289
 N         -1.3372001229        0.0026155259       -0.2114671469
 O         -1.8470656064        1.0769860808       -0.2582049022
 O         -1.8510546431       -1.0698799480       -0.2578683688
 Cl         0.8613529779       -1.4599259847       -0.7219895856
 Cl         0.8669154112        1.4576519211       -0.7200115239
 Cl         0.3999502939       -0.0018837901        1.7606380878
  7
  -26.7183801400000       0.132480522251183      !md4
 C          0.1961809203       -0.0373679091        0.0409617082
 N         -1.3372228323        0.0023064101       -0.2110314146
 O         -1.6806893381       -0.2353072418       -1.3255351119
 O         -2.0039295480        0.3072601759        0.7263803745
 Cl         0.9160254410       -1.1918629384       -1.0653020322
 Cl         0.7310628944        1.6202322382       -0.3166623151
 Cl         0.4775680101       -0.4490920316        1.7218503638
  7
  -26.7183801300000       0.132479120356432      !md1
 C          0.1962749985        0.0364597423        0.0410649690
 N         -1.3371834679        0.0029644328       -0.2111202423
 O         -2.0053985438       -0.2996554028        0.7261067184
 O         -1.6795387103        0.2424134219       -1.3255278981
 Cl         0.7250639965       -1.6225786077       -0.3188770368
 Cl         0.9205409117        1.1899305444       -1.0636402283
 Cl         0.4791476876        0.4449572463        1.7225236335
  7
  -26.7183801200000       0.132477718476515      !md3
 C          0.1941646242       -0.0286991460        0.0553602737
 N         -1.3382161808       -0.0002670280       -0.2053183374
 O         -1.9630183308        0.7396859556        0.4865360473
 O         -1.7202724031       -0.6897013484       -1.0970623568
 Cl         0.8126379379       -1.6021721327       -0.4089540497
 Cl         0.8310765685        1.2531271454       -0.9995724175
 Cl         0.4814180084        0.3363160758        1.7464091498
  7
  -26.7183800900000       0.132473512926271      !md1
 C          0.1941617207        0.0278601699        0.0554389937
 N         -1.3379922692        0.0053062858       -0.2054057753
 O         -1.7177941920        0.6979711269       -1.0955440281
 O         -1.9655870499       -0.7334097424        0.4851383400
 Cl         0.8263157059       -1.2554361790       -1.0007160746
 Cl         0.8185058649        1.5995093706       -0.4074975051
 Cl         0.4802643100       -0.3396153311        1.7460497032
  7
  -26.7183800400000       0.132466503972211      !md2
 C          0.2037453333       -0.0006648236       -0.0067558403
 N         -1.3371380459        0.0028826331       -0.2114407247
 O         -1.8503687489       -1.0694037368       -0.2681235339
 O         -1.8475658783        1.0775010172       -0.2477052843
 Cl         0.8619787588       -1.4578694621       -0.7258266308
 Cl         0.8664244759        1.4597320512       -0.7163037755
 Cl         0.3996660836       -0.0064304003        1.7607404757
  7
  -26.7181394000000       0.102687028747986      !gc
 C          0.1980519434        0.0218331774        0.0237134431
 N         -1.3413402619        0.0105441758       -0.2084008163
 O         -1.8049485430        0.9679807951       -0.7397730338
 O         -1.8943095734       -0.9722941737        0.1738913596
 Cl         0.8376556260       -1.3531187395       -0.8872533945
 Cl         0.8531056744        1.5417195257       -0.5430692446
 Cl         0.4414943355       -0.1982167830        1.7599972169
  7
  -26.7181372500000       0.102453669108633      !md1
 C          0.1932242873       -0.0049089174        0.0540481882
 N         -1.3414310710       -0.0027895070       -0.2098401581
 O         -1.6543255830        0.2925840137       -1.3200767072
 O         -2.0381453425       -0.2936105650        0.7088287237
 Cl         0.8819431975       -1.1864334605       -1.0667418821
 Cl         0.7606480981        1.6277774448       -0.3156735727
 Cl         0.4882728060       -0.4381155692        1.7228548066
