  13
  -14.7605114900000       0.500000000000000      !gc
 C          0.0022258299        1.2485896705        0.1126634127
 C          1.2257120128        0.3370158245       -0.0882968321
 C          0.6585224476       -1.0454156195        0.0372324492
 C         -0.6622615336       -1.0430700451        0.0371819144
 C         -1.2244975278        0.3413524191       -0.0882746610
 H          0.0037239033        2.0925425882       -0.5748582801
 H          0.0029895900        1.6439443838        1.1288821262
 H          1.6676482491        0.4686977215       -1.0803203643
 H          2.0089805548        0.5278271273        0.6468934680
 H          1.2960023936       -1.9111132873        0.0937515186
 H         -1.3027071242       -1.9065705232        0.0937819450
 H         -1.6660181689        0.4746360043       -1.0802760433
 H         -2.0070589855        0.5349390625        0.6469437579
  13
  -14.7605114900000       0.500000000000000      !mtd13
 C          0.0022189489        1.2486141355       -0.1112090245
 C          1.2256131333        0.3369078039        0.0894717486
 C          0.6585336268       -1.0453024463       -0.0392921737
 C         -0.6622549729       -1.0429582217       -0.0392024450
 C         -1.2244104308        0.3412698312        0.0894193040
 H          0.0028481043        1.6436921307       -1.1276020894
 H          0.0037307702        2.0926727334        0.5761291460
 H          2.0098153926        0.5292538031       -0.6443689111
 H          1.6662729496        0.4666261571        1.0823086315
 H          1.2960427698       -1.9108111746       -0.0979072536
 H         -1.3027898772       -1.9062456947       -0.0977473604
 H         -2.0079317063        0.5363950208       -0.6443426447
 H         -1.6644169827        0.4726187566        1.0823825745
