  15
        -15.81431469
 C         -0.3594032076        1.2248561222        0.1429650191
 C         -1.2939569864        0.0099649254        0.0020325277
 C         -0.3785770756       -1.2181924428       -0.1467170214
 C          1.0129862013       -0.7280813757        0.2522170939
 C          1.0254840309        0.7112837881       -0.2505017573
 H         -0.3405858980        1.5641386623        1.1796065985
 H         -0.6782674776        2.0619162909       -0.4767014736
 H         -1.9349591158       -0.0839918656        0.8782648324
 H         -1.9421033519        0.1130235457       -0.8678611062
 H         -0.7113986847       -2.0548593823        0.4660943380
 H         -0.3631228669       -1.5496256536       -1.1859814209
 H          1.1193578920       -0.7400466599        1.3383087664
 H          1.8081093397       -1.3350100279       -0.1789635164
 H          1.8287931114        1.3053196684        0.1834437993
 H          1.1363246714        0.7211491654       -1.3361615056
