  15
  -15.8143146900000       0.125009094118511      !mtd12
 C         -0.3594032076        1.2248561222        0.1429650191
 C         -1.2939569864        0.0099649254        0.0020325277
 C         -0.3785770756       -1.2181924428       -0.1467170214
 C          1.0129862013       -0.7280813757        0.2522170939
 C          1.0254840309        0.7112837881       -0.2505017573
 H         -0.3405858980        1.5641386623        1.1796065985
 H         -0.6782674776        2.0619162909       -0.4767014736
 H         -1.9349591158       -0.0839918656        0.8782648324
 H         -1.9421033519        0.1130235457       -0.8678611062
 H         -0.7113986847       -2.0548593823        0.4660943380
 H         -0.3631228669       -1.5496256536       -1.1859814209
 H          1.1193578920       -0.7400466599        1.3383087664
 H          1.8081093397       -1.3350100279       -0.1789635164
 H          1.8287931114        1.3053196684        0.1834437993
 H          1.1363246714        0.7211491654       -1.3361615056
  15
  -15.8143146400000       0.125002480094482      !md2
 C         -0.3633862956        1.1958349431        0.2389579152
 C         -1.2728114610        0.0351339177       -0.1617031985
 C         -0.4110967458       -1.2267150180        0.0183455298
 C          1.0420668546       -0.7363192230        0.1530828455
 C          1.0068689947        0.7383905459       -0.2487600869
 H         -0.3505639985        1.3065657935        1.3246213377
 H         -0.6762264484        2.1419723204       -0.2009452326
 H         -2.1832667603       -0.0005165206        0.4350801446
 H         -1.5617212484        0.1447598093       -1.2080344694
 H         -0.7118084020       -1.7802255060        0.9075992830
 H         -0.5232241492       -1.8939584458       -0.8358058708
 H          1.3719065802       -0.8237288805        1.1892140081
 H          1.7285805819       -1.3130785733       -0.4652997585
 H          1.8252428893        1.3086374741        0.1890408176
 H          1.0615212601        0.8341964348       -1.3345527221
  15
  -15.8143146400000       0.125002480094482      !md2
 C         -0.3915101002        1.1884155668        0.2335260341
 C         -1.2484772982        0.0221821495       -0.2462209404
 C         -0.4281488024       -1.1986823568        0.1687456033
 C          1.0404396370       -0.7692504397        0.0040487271
 C          1.0223402735        0.7611105696       -0.1601799372
 H         -0.4687201513        1.2800518362        1.3182974258
 H         -0.6793084560        2.1388858148       -0.2138311797
 H         -2.2467089047        0.0213724537        0.1897717908
 H         -1.3456415355        0.0589213383       -1.3325152764
 H         -0.6335752087       -1.4363570611        1.2135114797
 H         -0.6681871899       -2.0779445056       -0.4276146455
 H          1.6261610590       -1.0632102933        0.8746340231
 H          1.4905314447       -1.2427247592       -0.8680629518
 H          1.7829005556        1.2482061231        0.4485908068
 H          1.2063785324        1.0278070873       -1.2018220105
  15
  -15.8143146200000       0.124999834582900      !md2
 C         -0.4087189361        1.2076930736       -0.1603178141
 C         -1.2497427110       -0.0036618731        0.2427368317
 C         -0.4087216609       -1.1816019596       -0.2366143056
 C          1.0080962055       -0.7768720375        0.1680827131
 C          1.0539903697        0.7503525196       -0.0137919113
 H         -0.6285027044        2.0813042549        0.4519108795
 H         -0.6174053129        1.4666537438       -1.1993260092
 H         -1.3551857665       -0.0445647728        1.3282045983
 H         -2.2450095126        0.0149866381       -0.1997217053
 H         -0.7142831248       -2.1289034989        0.2059458250
 H         -0.4799605061       -1.2682329711       -1.3222266166
 H          1.1742997173       -1.0340704775        1.2151933754
 H          1.7671845713       -1.2842230584       -0.4258546575
 H          1.5300233063        1.2253509326        0.8435509853
 H          1.6295763663        1.0204424545       -0.8988148982
  15
  -15.8143146000000       0.124997189127308      !md1
 C         -0.3585630359        1.2231473863       -0.1539152601
 C         -1.2937822100        0.0114531633        0.0045814898
 C         -0.3795413401       -1.2189376196        0.1456748304
 C          1.0142460631       -0.7284978403       -0.2464449266
 C          1.0241598027        0.7130372512        0.2500818759
 H         -0.6779070196        2.0703925793        0.4515020180
 H         -0.3366992176        1.5452568786       -1.1960088193
 H         -1.9276765500        0.1200239780        0.8842897656
 H         -1.9489425889       -0.0838263808       -0.8609017557
 H         -0.3675325549       -1.5593281549        1.1820476198
 H         -0.7116423650       -2.0501548370       -0.4749304143
 H          1.8068390718       -1.3335506143        0.1919166069
 H          1.1276806477       -0.7446274184       -1.3317684875
 H          1.1284736651        0.7281410491        1.3363144432
 H          1.8297175879        1.3052616522       -0.1821989175
  15
  -15.8143146000000       0.124997189127308      !mtd3
 C         -0.3878585164        1.2344838950       -0.0065272521
 C         -1.2774675948       -0.0150754166       -0.1380459937
 C         -0.3786843023       -1.1900024036        0.2479893255
 C          0.9932617994       -0.7538622415       -0.2542619222
 C          1.0530720804        0.7183674626        0.1508647264
 H         -0.6776772022        1.8340924373        0.8559851855
 H         -0.4817549235        1.8654007069       -0.8901330414
 H         -2.1649657571        0.0453312230        0.4905128569
 H         -1.6070328621       -0.1327987675       -1.1712761256
 H         -0.3538471622       -1.3045802784        1.3330487969
 H         -0.7114858016       -2.1300471139       -0.1902664805
 H          1.8070800968       -1.3375135969        0.1742307085
 H          1.0352974545       -0.8474231794       -1.3408028591
 H          1.3665615576        0.7960260182        1.1929811151
 H          1.7601361850        1.2840707661       -0.4545051932
  15
  -15.8143146000000       0.124997189127308      !md2
 C         -0.3615398417        1.1932127947       -0.2545443946
 C         -1.2737509030        0.0367885134        0.1517531966
 C         -0.4112800193       -1.2268140936       -0.0109005482
 C          1.0434138005       -0.7380957528       -0.1354230057
 C          1.0047274381        0.7412499558        0.2491302566
 H         -0.6779373202        2.1440670067        0.1724274611
 H         -0.3403275768        1.2918158148       -1.3412321129
 H         -1.5686950473        0.1568943229        1.1952079589
 H         -2.1806255220       -0.0044715590       -0.4500355212
 H         -0.5321120505       -1.8881848502        0.8466110141
 H         -0.7038503884       -1.7861084300       -0.8992565337
 H          1.7228863476       -1.3077339611        0.4971460068
 H          1.3846632312       -0.8377882375       -1.1667179789
 H          1.0506862643        0.8493714937        1.3341716343
 H          1.8265969414        1.3065686350       -0.1885066953
  15
  -15.8143145800000       0.124994543727703      !md1
 C         -0.4077139293        1.2067456373        0.1543201458
 C         -1.2491185245       -0.0052588403       -0.2424174536
 C         -0.4112420644       -1.1775834429        0.2558840326
 C          1.0110547381       -0.7810170125       -0.1416201107
 C          1.0513436250        0.7538485926       -0.0260687210
 H         -0.5965499145        1.4529087151        1.2002934078
 H         -0.6420205270        2.0859427043       -0.4443625178
 H         -2.2470638252        0.0186070198        0.1936252052
 H         -1.3468947375       -0.0564543019       -1.3281980558
 H         -0.4920918021       -1.2515854848        1.3417314109
 H         -0.7140290998       -2.1299323605       -0.1775284532
 H          1.7600762338       -1.2591349095        0.4882446775
 H          1.1994465476       -1.0835932431       -1.1725936539
 H          1.6599734234        1.0691148987        0.8209902296
 H          1.4867956298        1.1930362848       -0.9233688290
