! r2scan-3c def2/J RI DEFGRID2 scfconv6 printgap
%output
    printlevel normal
end
* xyz 0 1
C -2.5962223271 0.5122774679 0.6276292608
C -1.7244823302 0.4088634581 -0.6272293752
C -0.4245626318 -0.2696631157 -0.2799515282
O -0.1762732744 -1.4392764557 -0.48904633
O 0.4107752064 0.5641939558 0.3247997742
C 1.6887230125 0.0668312962 0.7544969754
C 2.721113788 0.1812849064 -0.3566506566
H -2.0908622874 1.1013157334 1.3884589803
H -3.5392414026 0.9901158513 0.3799773817
H -2.8003953161 -0.4777878568 1.0284685467
H -1.508466331 1.4063308625 -1.0076668968
H -2.2290226195 -0.1832914639 -1.3897302697
H 1.9545495281 0.6905180945 1.6086405798
H 1.5712848448 -0.9756998076 1.0656090203
H 2.7880003295 1.2098948236 -0.7006220909
H 3.6889968566 -0.1359431136 0.0174790069
H 2.4399509095 -0.4547305692 -1.1930659016
*
