! r2scan-3c def2/J RI DEFGRID2 scfconv6 printgap
%output
    printlevel normal
end
* xyz 0 1
C 2.3720642869 -0.266121007 -0.6791436604
C 1.6135011261 0.2724742241 0.5293750088
C 0.2634565959 -0.4161277323 0.7456544925
C -0.8150004893 -0.0411042684 -0.2804450926
H -0.4009796766 -0.1110850299 -1.2985141832
C -2.013540173 -0.9799742985 -0.1754283597
O -1.3050707293 1.2762535056 -0.0736751745
H 3.3394501885 0.2228668826 -0.7640192676
H 1.822399928 -0.091889242 -1.6005989523
H 2.5356445246 -1.3362769053 -0.5762547997
H 2.2223476183 0.1171994346 1.4225268044
H 1.4725494756 1.3502384933 0.4197099067
H 0.4085287315 -1.4967632361 0.7128163386
H -0.1214413565 -0.1573291698 1.7348531562
H -1.7194122866 -1.9953342334 -0.4216892673
H -2.412958008 -0.9529109462 0.8349954965
H -2.7909797669 -0.6544981431 -0.8613263209
H -0.5661354092 1.897811098 -0.1014871171
*
