! r2scan-3c def2/J RI DEFGRID2 scfconv6 printgap
%output
    printlevel normal
end
%cpcm
    smd true
    smdsolvent "water"
end
* xyz 0 1
C 1.9559983937 -0.7969285082 -0.1217813014
C 1.2163998567 0.4191202262 0.4237787435
C -0.0384694866 0.7742068459 -0.3866705747
C -1.1039344466 -0.2693905918 -0.273723785
C -2.2549729573 -0.0923383829 0.3475868296
H 2.8734854767 -0.9610012829 0.438603224
H 2.2149812622 -0.6474572133 -1.1678031974
H 1.3456992429 -1.6924835645 -0.0408881893
H 0.9285896506 0.2365976059 1.4614411864
H 1.8889378364 1.279666814 0.4106397512
H 0.2431644245 0.8892367434 -1.4366484618
H -0.4302190992 1.7288840379 -0.0300578975
H -0.8808441516 -1.2218200477 -0.7354251065
H -2.9955547273 -0.8711127637 0.4151378878
H -2.5073690111 0.8463629272 0.8138150339
*
