! r2scan-3c def2/J RI DEFGRID2 scfconv6 printgap
%output
    printlevel normal
end
* xyz 0 1
C -2.0436379477 0.8359785804 -0.6462058333
C -1.3323335408 0.5378646187 0.6697791858
C -0.0154467911 -0.2370022526 0.53213039
H 0.4179087153 -0.3356633832 1.5343472143
C -0.2168248519 -1.6423009107 -0.0305369549
C 1.0139628288 0.527804607 -0.305541166
O 2.2914035334 -0.0377759841 -0.0766880472
H -1.4248814548 1.4520646019 -1.2930114513
H -2.2926936902 -0.0813115952 -1.1716911451
H -2.9680083104 1.3733447804 -0.448201803
H -2.0001144508 -0.0436876328 1.3086712327
H -1.1276904615 1.4814120298 1.1814379917
H 0.736490739 -2.1646995149 -0.0466233214
H -0.6024541263 -1.6028857142 -1.0459250695
H -0.9124178936 -2.2031293815 0.5883690311
H 1.0144005554 1.5863495666 -0.0092195389
H 0.7574765262 0.4585257512 -1.3700270038
H 2.9439215675 0.4130583813 -0.6280275139
*
