  26
        -40.56907276
 C          2.6811955443        1.4020604487        1.1510367704
 C          2.9482864060        0.7273884105       -0.1862238907
 O          2.2139719830       -0.4977099599       -0.2723120355
 C          1.0441511849       -0.4734682770       -0.9016959328
 O          0.6116731404        0.4637926356       -1.5202996967
 C          0.3013577244       -1.7830452116       -0.7080881398
 C         -0.3011665867       -1.7831822180        0.7076273379
 C         -1.0442130158       -0.4737886774        0.9015053234
 O         -0.6120564422        0.4632631462        1.5206302109
 O         -2.2138587711       -0.4979608145        0.2718156890
 C         -2.9485062752        0.7269863227        0.1862396882
 C         -2.6808201776        1.4028906305       -1.1503112140
 H          3.0386243891        0.7779881863        1.9661394940
 H          3.1898358911        2.3609995230        1.1868221747
 H          1.6122001520        1.5574703742        1.2796292458
 H          4.0004092326        0.4525548288       -0.2921341918
 H          2.6471509753        1.3757275279       -1.0149210454
 H          0.9899545019       -2.6199659604       -0.8177964490
 H         -0.4927273510       -1.8463208406       -1.4517918121
 H          0.4929315429       -1.8464500953        1.4513200942
 H         -0.9896197463       -2.6202280061        0.8172392669
 H         -4.0006215333        0.4516632909        0.2913951975
 H         -2.6480587733        1.3747530339        1.0156649366
 H         -3.0374921458        0.7792508961       -1.9661184051
 H         -3.1898673950        2.3616145579       -1.1856716178
 H         -1.6118263072        1.5589080725       -1.2782163014
