  24
        -31.81598036
 C         -3.0372124558       -1.4582441583       -0.0003521774
 C         -1.7397032497       -0.7093857273        0.0000505588
 C         -0.5468944470       -1.3826063124        0.0001459886
 C          0.6905609322       -0.7087996332        0.0001406139
 C          1.9236708789       -1.3921655981        0.0001987590
 C          3.1033889313       -0.7017881067       -0.0000550548
 C          3.1033849061        0.7018036978       -0.0002748867
 C          1.9236647652        1.3921688469       -0.0001161764
 C          0.6905544995        0.7087947530        0.0000936016
 C         -0.5468974702        1.3826014879        0.0002084325
 C         -1.7397090697        0.7093886803        0.0001728578
 C         -3.0372363554        1.4582322536       -0.0000415035
 H         -2.8609713070       -2.5310148496        0.0004312307
 H         -3.6284414163       -1.2038938165        0.8789554256
 H         -3.6271166839       -1.2049670409       -0.8808859021
 H         -0.5402841539       -2.4643722409        0.0004756195
 H          1.9188294650       -2.4732820681        0.0001984360
 H          4.0453783199       -1.2310997340       -0.0004411724
 H          4.0453913504        1.2311093938       -0.0005249580
 H          1.9188205900        2.4732904911       -0.0001171603
 H         -0.5402708926        2.4643688464        0.0000407914
 H         -3.6277842735        1.2043687856       -0.8798722216
 H         -3.6278158079        1.2045207708        0.8798168720
 H         -2.8611163529        2.5309692750       -0.0001149018
