  24
        -31.81598036
 C         -3.0372124558       -1.4582441583       -0.0003521774
 C         -1.7397032497       -0.7093857273        0.0000505588
 C         -0.5468944470       -1.3826063124        0.0001459886
 C          0.6905609322       -0.7087996332        0.0001406139
 C          1.9236708789       -1.3921655981        0.0001987590
 C          3.1033889313       -0.7017881067       -0.0000550548
 C          3.1033849061        0.7018036978       -0.0002748867
 C          1.9236647652        1.3921688469       -0.0001161764
 C          0.6905544995        0.7087947530        0.0000936016
 C         -0.5468974702        1.3826014879        0.0002084325
 C         -1.7397090697        0.7093886803        0.0001728578
 C         -3.0372363554        1.4582322536       -0.0000415035
 H         -2.8609713070       -2.5310148496        0.0004312307
 H         -3.6284414163       -1.2038938165        0.8789554256
 H         -3.6271166839       -1.2049670409       -0.8808859021
 H         -0.5402841539       -2.4643722409        0.0004756195
 H          1.9188294650       -2.4732820681        0.0001984360
 H          4.0453783199       -1.2310997340       -0.0004411724
 H          4.0453913504        1.2311093938       -0.0005249580
 H          1.9188205900        2.4732904911       -0.0001171603
 H         -0.5402708926        2.4643688464        0.0000407914
 H         -3.6277842735        1.2043687856       -0.8798722216
 H         -3.6278158079        1.2045207708        0.8798168720
 H         -2.8611163529        2.5309692750       -0.0001149018
  24
        -31.81386277
 C         -3.0196396017       -1.5017497968        0.0001840556
 C         -1.7470940397       -0.7025467138       -0.0003339943
 C         -0.5513483408       -1.3753444970        0.0000460049
 C          0.6870863020       -0.7075336021        0.0002274805
 C          1.9196069704       -1.3930195097        0.0000783057
 C          3.0995716591       -0.7037296336       -0.0003285545
 C          3.1011669042        0.7003442791       -0.0003392272
 C          1.9227467645        1.3923986320        0.0001651176
 C          0.6886504816        0.7101067191        0.0003312799
 C         -0.5480299890        1.3828214740        0.0004014513
 C         -1.7457972464        0.7146351409       -0.0000615094
 C         -3.0299966744        1.4909913679       -0.0004021023
 H         -3.0472497252       -2.1567793698       -0.8700471405
 H         -3.0617540003       -2.1318156436        0.8883181431
 H         -3.9034903780       -0.8740642971       -0.0157227712
 H         -0.5515230108       -2.4572920407        0.0000980624
 H          1.9131935980       -2.4740962353       -0.0000021106
 H          4.0412226050       -1.2336724427       -0.0008772982
 H          4.0440295795        1.2281161679       -0.0007201301
 H          1.9192417829        2.4735121748        0.0003676802
 H         -0.5388566724        2.4646017760        0.0004876456
 H         -3.6245676222        1.2566728916        0.8821326168
 H         -2.8253062225        2.5588692527        0.0004293682
 H         -3.6234223558        1.2580745334       -0.8840863954
