! pbe def2-sv(p) def2/J RI DEFGRID1 loosescf d4 GCP(DFT/SV(P)) printgap
%output
    printlevel normal
end
* xyz 0 1
C -1.219205889 0.168485991 -0.3734434462
C 0.1163624064 0.6140516029 0.245897468
C 1.3138920838 -0.1829734565 -0.2925233978
O 1.1894378684 -1.5339149942 0.0791324165
O 0.3293866031 1.9957416826 0.0730986983
O -1.7095834989 -0.9399738214 0.3425720052
H -1.0735777329 -0.0827299197 -1.432490568
H -1.9189557787 1.0136590868 -0.2957659897
H 0.0457415178 0.4488907224 1.3259892104
H 2.2254377544 0.2603498453 0.1309720109
H 1.3472339964 -0.0845803419 -1.3883786931
H 1.9711594174 -2.0201228682 -0.2182545038
H 0.4138142543 2.1944408001 -0.8710609855
H -2.4977459754 -1.2845804707 -0.0996036507
*
