! r2scan-3c def2/J RI DEFGRID2 scfconv6 printgap
%output
    printlevel normal
end
* xyz 0 1
C 2.3243759935 -0.5006012444 0.5722082296
C 1.5234551003 -0.124622741 -0.6695872669
C 0.568910195 1.0482794535 -0.4429115514
C -0.5518889001 0.7715002318 0.5489178201
S -1.7533459573 -0.4845221263 -0.0355541281
H 2.8694264312 0.3625700599 0.9478590956
H 3.042065113 -1.2810262824 0.3317013642
H 1.679452586 -0.8709174444 1.364997439
H 0.9593392849 -0.990718687 -1.0221749606
H 2.2167947812 0.1557469554 -1.4651410592
H 0.123091313 1.3317153843 -1.399125429
H 1.135547518 1.904817488 -0.0691937536
H -0.1770093368 0.4419562342 1.5151273687
H -1.1565947718 1.6669044622 0.6921212652
H -0.9683825874 -1.5418062886 0.1320797456
*
