! r2scan-3c def2/J RI DEFGRID2 scfconv6 printgap
%output
    printlevel normal
end
* xyz 0 1
C -3.4115498048 -0.6909569172 -0.5228793848
C -2.7834124112 0.1047138155 0.6162450805
C -1.2881754984 -0.1717846265 0.7949180794
C -0.4799289296 0.3431914774 -0.380238304
Br 1.4533437613 0.0795062549 -0.0809991916
H -3.0198536033 -0.3784543367 -1.4873620168
H -3.2174252006 -1.7536054296 -0.3972915669
H -4.4876281128 -0.5393444795 -0.5326956208
H -3.2851378528 -0.1569510867 1.5491312487
H -2.9361460339 1.1722189299 0.4454245936
H -0.9416234433 0.3178292113 1.7079288054
H -1.1245659092 -1.2457198816 0.9084317307
H -0.6101863766 1.414469192 -0.5244383881
H -0.7010518846 -0.1899879042 -1.3019234926
*
