! r2scan-3c def2/J RI DEFGRID2 scfconv6 printgap
%output
    printlevel normal
end
* xyz 0 1
C -1.808928289 0.919631847 -0.5954349154
C -1.0015790664 0.578946429 0.6535964468
C 0.0396816389 -0.5380038395 0.4768212113
H 0.4951261218 -0.7106493254 1.4594217116
C -0.5991562052 -1.8416831811 0.0028933979
C 1.1796947984 -0.1485288788 -0.4759494247
O 2.0157981945 0.8751480902 0.0225884921
H -2.4024768331 0.0689392216 -0.9174867496
H -2.4868327145 1.7418419377 -0.3783563485
H -1.1650754032 1.2219603183 -1.4171749678
H -1.692558545 0.2693259535 1.4410424068
H -0.4968798322 1.4797387731 1.0114120568
H 0.1191282075 -2.6558782936 0.0579315473
H -0.9331433977 -1.7542167723 -1.0275128719
H -1.4523660853 -2.0922781931 0.6278447678
H 0.7797616086 0.1320080737 -1.4584517649
H 1.8406990262 -1.008043874 -0.6144523164
H 1.4971845734 1.6851995354 0.1192411024
*
