! pbe def2-sv(p) def2/J RI DEFGRID1 loosescf d4 GCP(DFT/SV(P)) printgap
%output
    printlevel normal
end
* xyz 0 1
C 3.7063819467 0.2938783422 -0.5028628249
C 2.507504987 -0.2095853667 0.2393322449
C 2.6093740385 -0.8843555776 1.3736312332
C 1.1687020106 0.1282993651 -0.3835522175
H 1.353696252 0.5348690603 -1.3814314395
C 0.2466424262 -1.1010237809 -0.5308902274
C -1.0525158552 -0.9833592079 0.2772549099
C -1.6970357222 0.3370751229 -0.0106039921
C -0.9194278962 1.4314275594 0.0604541729
C 0.5016732254 1.258780147 0.4419349481
C -3.0917085321 0.4105126595 -0.3846178707
O -3.8516938243 -0.5361747697 -0.4915318092
H 3.7454275664 -0.1531537682 -1.4953780399
H 3.6453104399 1.3740541439 -0.6273018322
H 4.624291782 0.0528795629 0.0256432735
H 1.7474197969 -1.245113178 1.9084715908
H 3.5651009122 -1.1117970499 1.8134977225
H -0.0226618502 -1.2210361215 -1.5815110557
H 0.7766775657 -2.0021472381 -0.2234542381
H -1.7363961986 -1.7941349281 0.0232296094
H -0.8263416483 -1.0480792312 1.3443294431
H -1.3040121761 2.4164969098 -0.1560329843
H 1.0662214525 2.1823300646 0.3243546415
H 0.543171279 0.9673952465 1.4955184387
H -3.4603467557 1.4355556964 -0.5800962288
*
