! r2scan-3c def2/J RI DEFGRID2 scfconv6 printgap
%output
    printlevel normal
end
%cpcm
    smd true
    smdsolvent "water"
end
* xyz 0 1
C 1.7613306959 1.1322365576 0.3054207008
C 1.1225765293 0.1105372906 -0.6356243685
C 2.32659e-05 -0.6699481969 6.5701e-06
O -0.0005580351 -1.88775037 -0.0007185948
C -1.1218618405 0.1109169636 0.6363359916
C -1.7614501509 1.1315758446 -0.3053140519
H 2.1118647806 0.6441418873 1.2116944207
H 2.6139630001 1.5923432312 -0.1864843317
H 1.0597454805 1.9144361678 0.5778166085
H 0.7184174771 0.6214482091 -1.5116670084
H 1.8733313952 -0.605263443 -0.9763060203
H -0.7170373417 0.622802767 1.5114811259
H -1.8723118726 -0.6046239563 0.9782236846
H -2.6135080183 1.5924126987 0.1868702868
H -2.1129572312 0.6423869105 -1.2106198528
H -1.0600198927 1.913314059 -0.5794313127
*
