! r2scan-3c def2/J RI DEFGRID2 scfconv6 printgap
%output
    printlevel normal
end
%cpcm
    smd true
    smdsolvent "water"
end
* xyz 0 1
C -2.8318908576 -0.1879161244 -0.4206210646
C -1.6812846853 0.7399470511 -0.0539083971
C -0.4057314775 -0.0162305347 0.2174891285
O -0.328952219 -1.2044057009 0.4446889125
O 0.6451008836 0.7995526747 0.2027954021
C 1.9464324504 0.2430387552 0.4552999773
C 2.5686672172 -0.3001853987 -0.8219741428
H -3.7502384728 0.3798728405 -0.5319343045
H -2.6210330086 -0.7045066606 -1.3533826755
H -2.9682807057 -0.9375579345 0.3545403604
H -1.9180328469 1.295740365 0.856332809
H -1.4842515673 1.4677159316 -0.8411307646
H 2.5263454165 1.0741056093 0.8576183334
H 1.8480882112 -0.5499956109 1.2028439908
H 2.6084265393 0.4782234281 -1.5791726074
H 3.5745602297 -0.6488100134 -0.6122041305
H 1.9779881558 -1.132201058 -1.198957682
*
