! r2scan-3c def2/J RI DEFGRID2 scfconv6 printgap
%output
    printlevel normal
end
* xyz 0 1
C 1.8669986214 -1.0217791756 -0.4822263824
C 1.2283848995 -0.0003739383 0.4531637916
H 1.0142731747 -0.4868969515 1.41979771
C -0.0694291353 0.6191622503 -0.0924674093
C -1.349700096 -0.1940561178 0.1506704214
C -2.5563213523 0.7466852892 0.1700369934
C -1.5734162867 -1.2726967224 -0.9067636509
O 2.2139556925 1.0051561693 0.65995363
H 2.8489541077 -1.2850362749 -0.0969098987
H 1.2633400708 -1.9192485443 -0.5492600254
H 1.9913537023 -0.5905476935 -1.4716952872
H -0.1917960251 1.5872328069 0.401243363
H 0.0492700415 0.8160582976 -1.1594091379
H -1.2743038965 -0.6765442385 1.1321117544
H -2.6410523351 1.2683446341 -0.7806973965
H -2.461415978 1.4859106656 0.9620227409
H -3.4728347424 0.1857275579 0.3359290662
H -2.5150076092 -1.7853385014 -0.7225822783
H -1.614883817 -0.8264578162 -1.8977594279
H -0.7799065214 -2.0127003144 -0.8951504283
H 1.8774970811 1.6669782678 1.2784622084
*
