! pbe def2-sv(p) def2/J RI DEFGRID1 loosescf d4 GCP(DFT/SV(P)) printgap
%output
    printlevel normal
end
* xyz 0 1
C -2.5047004331 0.6417736076 0.519518638
C -1.2633096115 -0.2518057064 0.4770457959
C -1.6242278005 -1.533053632 -0.2772959108
C -0.0482960333 0.4540221613 -0.1667945412
C 0.1490646558 1.8527832982 0.4211476894
C 1.2194981675 -0.4448347397 -0.0697745641
C 1.6269813178 -0.9419780913 -1.4583651018
C 2.4373029812 0.2021069276 0.5926370397
H -3.3636653971 0.062125373 0.8508671405
H -2.3789288243 1.4716624738 1.2080985317
H -2.722954944 1.0356390394 -0.4710071065
H -0.9968191965 -0.5151034074 1.5077758434
H -2.4696165298 -2.0230885625 0.2010122341
H -0.7985324862 -2.2380393893 -0.2990478071
H -1.903229301 -1.296507033 -1.3022388544
H -0.2791004935 0.5884223074 -1.2297830409
H 1.0437631378 2.3164755945 0.0177265682
H 0.231949273 1.816067382 1.5046679745
H -0.6912078062 2.4902281156 0.1620720706
H 0.9677727823 -1.3168793377 0.542908189
H 2.4688898707 -1.6275859403 -1.3860914158
H 0.8055156393 -1.4604536205 -1.9459146494
H 1.9238674849 -0.1030675182 -2.0847727047
H 3.2251039036 -0.5426643574 0.6892631403
H 2.2016494676 0.5714536367 1.5861050049
H 2.8271453905 1.0214044828 -0.0059003241
*
