  11
  -18.5867460000000       0.292505365027132      !md7
 C          0.3984993583       -1.7052078296        0.1562614338
 C          0.4527194641       -0.2719213030       -0.3356553152
 H          0.3121102611       -0.2251290311       -1.4185487953
 C         -0.5433336934        0.6368402004        0.3638718127
 Cl        -2.2062674163        0.1647687827       -0.0708368888
 Cl         2.0853038674        0.4078345004       -0.0175945933
 H         -0.5906643985       -2.1147829738       -0.0361571086
 H          1.1366767203       -2.3117693747       -0.3614912631
 H          0.5967329318       -1.7486489430        1.2248009201
 H         -0.4540907422        0.5563594975        1.4473696835
 H         -0.4148808407        1.6746149031        0.0562171578
  11
  -18.5867460000000       0.292505365027132      !md2
 C          0.3983862454       -1.7052763799        0.1561808221
 C          0.4527127819       -0.2719648774       -0.3358035052
 H          0.3121680213       -0.2252659131       -1.4187009361
 C         -0.5433523605        0.6368912980        0.3636278140
 Cl        -2.2061241249        0.1647256798       -0.0707325454
 Cl         2.0852069775        0.4078972901       -0.0175193108
 H          1.1369469997       -2.3117091382       -0.3610741899
 H          0.5961529144       -1.7486474627        1.2247691674
 H         -0.5906184300       -2.1150668095       -0.0365433916
 H         -0.4538680212        0.5567310035        1.4472293793
 H         -0.4148796980        1.6746371665        0.0558265001
  11
  -18.5867459700000       0.292496079343704      !md7
 C          0.3980425896       -1.7050418766        0.1561820176
 C          0.4526840983       -0.2718252618       -0.3358666485
 H          0.3122184815       -0.2250268472       -1.4187717724
 C         -0.5434225674        0.6369653681        0.3636510628
 Cl        -2.2061011203        0.1645311881       -0.0707228531
 Cl         2.0853730050        0.4079195782       -0.0175233434
 H          0.5951133942       -1.7483441464        1.2248427931
 H         -0.5907399609       -2.1149766052       -0.0371044810
 H          1.1370606782       -2.3114266559       -0.3604731315
 H         -0.4540435533        0.5565155744        1.4472366012
 H         -0.4150827171        1.6746538042        0.0560386104
  11
  -18.5843297300000       2.268261016421086E-002 !mtd12
 C          0.9771860293       -2.1013492612        0.3802124493
 C          0.3440657199       -0.8439083180       -0.1919826865
 H          0.0832365091       -0.9827696956       -1.2441538879
 C         -0.8816952869       -0.4278401057        0.6025565983
 Cl        -1.7311727538        0.9260095629       -0.1859876870
 Cl         1.5456689009        0.4889349453       -0.1552791264
 H          0.2786324236       -2.9321079976        0.3089341498
 H          1.8766115887       -2.3526569456       -0.1749606854
 H          1.2437651439       -1.9521528939        1.4235151640
 H         -1.5891069891       -1.2558654894        0.6625704346
 H         -0.6061504550       -0.0985628182        1.6045069194
  11
  -18.5843297200000       2.268237013925029E-002 !mtd2
 C          0.9770378100       -2.1013657678        0.3801935210
 C          0.3439998963       -0.8440004711       -0.1921524101
 H          0.0834290679       -0.9828032471       -1.2443919217
 C         -0.8819278413       -0.4281946751        0.6022630789
 Cl        -1.7307964721        0.9261223913       -0.1858464870
 Cl         1.5454782295        0.4890121884       -0.1552206741
 H          1.2433727790       -1.9521493497        1.4235358943
 H          0.2785271319       -2.9321955192        0.3086848147
 H          1.8766243658       -2.3524645801       -0.1748241611
 H         -1.5894962767       -1.2561166832        0.6616176004
 H         -0.6066756747       -0.0995520149        1.6045130447
  11
  -18.5843297000000       2.268189009703417E-002 !mtd11
 C          0.9771432431       -2.1013656673        0.3801480774
 C          0.3439685760       -0.8440363018       -0.1921558286
 H          0.0832493168       -0.9826273804       -1.2443778646
 C         -0.8818133417       -0.4278853160        0.6023449449
 Cl        -1.7309179831        0.9260444811       -0.1858962123
 Cl         1.5454990313        0.4889747360       -0.1552065089
 H          1.8763040704       -2.3529505197       -0.1753618567
 H          1.2443261425       -1.9519554086        1.4233099804
 H          0.2784651551       -2.9320462437        0.3095106423
 H         -1.5891738840       -1.2560262969        0.6625085151
 H         -0.6060946158       -0.0988784469        1.6044033805
  11
  -18.5840887200000       1.757650417505091E-002 !md5
 C          0.3903377940       -1.8724752292       -0.2013653656
 C          0.5678823646       -0.4815932062       -0.7810046728
 H          1.1010953092       -0.5250636645       -1.7357561723
 C         -0.7453063343        0.2514250154       -1.0024312714
 Cl        -1.6861111494        0.3946469372        0.5045552494
 Cl         1.6082587840        0.4940688953        0.3099462266
 H          1.3573166721       -2.3458396172       -0.0540986518
 H         -0.1234751394       -1.8196930838        0.7550789974
 H         -0.1991159414       -2.4801713203       -0.8848900238
 H         -0.5709135939        1.2646505843       -1.3642483044
 H         -1.3637048362       -0.2976653101       -1.7136771710
  11
  -18.5840886900000       1.757594620294603E-002 !mtd4
 C          0.3906331017       -1.8726680980       -0.2013163385
 C          0.5678493717       -0.4817821984       -0.7810745665
 H          1.1012686098       -0.5252780796       -1.7356750539
 C         -0.7453913422        0.2511959391       -1.0024227250
 Cl        -1.6860377548        0.3948952287        0.5045446532
 Cl         1.6080986609        0.4940611629        0.3099533946
 H         -0.1996054567       -2.4803273600       -0.8841667711
 H          1.3576956158       -2.3462741297       -0.0546296626
 H         -0.1223759673       -1.8195150527        0.7553913666
 H         -0.5710167648        1.2642826885       -1.3645773348
 H         -1.3638258240       -0.2978517185       -1.7136664639
  11
  -18.5840886900000       1.757594620294603E-002 !mtd1
 C          0.3907919251       -1.8726386298       -0.2013495425
 C          0.5677583239       -0.4815671545       -0.7809204539
 H          1.1008942823       -0.5250730213       -1.7357156328
 C         -0.7454479441        0.2515370102       -1.0023646224
 Cl        -1.6861883366        0.3948203290        0.5045144396
 Cl         1.6082342450        0.4939038533        0.3099324328
 H         -0.1227370868       -1.8200731774        0.7552254598
 H         -0.1986751004       -2.4802746247       -0.8848589868
 H          1.3579162107       -2.3457960757       -0.0543589026
 H         -0.5710413050        1.2647807662       -1.3641693281
 H         -1.3638223989       -0.2973378391       -1.7137796806
  11
  -18.5818911600000       1.717923620593880E-003 !mtd14
 C          0.7834493133       -1.9706710857        0.3477545800
 C          0.3968448549       -0.5858208354       -0.1431101353
 H          0.0634439548       -0.6309165708       -1.1824073673
 C         -0.6766413070        0.0639221079        0.7317169392
 Cl        -2.0726824454        0.5991673377       -0.2400356927
 Cl         1.8640528911        0.4519886530       -0.1603622415
 H         -0.0829564894       -2.6273117805        0.3043619277
 H          1.5678575787       -2.3868769805       -0.2790527571
 H          1.1453955655       -1.9250503207        1.3722632391
 H         -1.0614979511       -0.6460278048        1.4638893058
 H         -0.2956328032        0.9452465484        1.2465051134
