  12
        -20.66703291
 C         -0.1422105162       -1.2022511343        0.0000135117
 C         -1.5262007979       -1.1359598483        0.0000208486
 N         -2.2021578287        0.0000442194       -0.0000647648
 C         -1.5261887795        1.1359368451       -0.0000437410
 C         -0.1421384409        1.2022006743        0.0000896757
 C          0.5663363662        0.0000390572        0.0001035471
 C          1.9833407269       -0.0000382492       -0.0000516934
 N          3.1287414549        0.0000080034       -0.0000482124
 H          0.3768157709       -2.1481947761        0.0000532006
 H         -2.1255223190       -2.0366817580       -0.0000010454
 H         -2.1253336157        2.0367658543       -0.0001578005
 H          0.3766853632        2.1482507653        0.0001008836
