  8
  -11.3780468500000       0.333336860655776      !mtd9
 C         -1.7126498884       -0.3762978753        0.0000037250
 C         -0.6132156483        0.6654498562       -0.0000086333
 Cl         0.9947420897       -0.1175502312        0.0000004134
 H         -1.6425018728       -1.0067455336        0.8828468909
 H         -2.6805807361        0.1207371502        0.0001814335
 H         -1.6427476190       -1.0065539293       -0.8830141730
 H         -0.6536590355        1.2908266240        0.8914799424
 H         -0.6536730998        1.2907960180       -0.8914501431
  8
  -11.3780468400000       0.333333333320682      !md1
 C         -1.7125243709       -0.3762910986        0.0000048838
 C         -0.6131974187        0.6654790850       -0.0000074748
 Cl         0.9946855036       -0.1175640525        0.0000015724
 H         -1.6422454391       -1.0067103358       -0.8828965691
 H         -1.6426369821       -1.0065907062        0.8830329038
 H         -2.6805331462        0.1207138106       -0.0002317066
 H         -0.6537232653        1.2907951471        0.8915357903
 H         -0.6537461209        1.2909095053       -0.8914648519
  8
  -11.3780468300000       0.333329806023542      !md1
 C         -1.7125789667       -0.3762898724        0.0000038410
 C         -0.6132799298        0.6655210502       -0.0000085180
 Cl         0.9947402148       -0.1175831089        0.0000005299
 H         -2.6805296080        0.1207675298       -0.0003608294
 H         -1.6422578948       -1.0067680487       -0.8828574001
 H         -1.6430166266       -1.0065154888        0.8830454807
 H         -0.6537155753        1.2907001236        0.8915940592
 H         -0.6536558389        1.2910889097       -0.8913842137
