! r2scan-3c def2/J RI DEFGRID2 scfconv6 printgap
%output
    printlevel normal
end
%cpcm
    smd true
    smdsolvent "water"
end
* xyz 0 1
C -1.2330153349 0.1986035718 -0.2920016948
C 0.1251573549 0.6602266917 0.2651373603
C 1.2776276248 -0.1889525449 -0.296474085
O 1.0884065578 -1.5338456367 0.0876612361
O 0.3513807477 2.0279364586 0.0210812658
O -1.6741101185 -1.0098289067 0.2754256688
H -1.1695865851 0.103870794 -1.3874316363
H -1.9909418095 0.947739801 -0.0470847524
H 0.1051682365 0.5514070019 1.3550473088
H 2.2203258107 0.2076287883 0.0993872282
H 1.2877998343 -0.1022291167 -1.392735941
H 1.8509070923 -2.0604934868 -0.1886609458
H 0.3270304812 2.1957090223 -0.9322182989
H -0.9342073081 -1.6394758731 0.2485950737
*
