  20
        -34.23975893
 C          2.2354351074       -1.4205290511        0.5884798891
 C          1.4948301703       -0.4391481141       -0.2700606707
 O          0.9456076593       -0.6927683598       -1.3097318918
 O          1.5107333480        0.7814893046        0.2886152983
 C          0.7045305492        1.7923094005       -0.3010607713
 C         -0.7045764329        1.7923076573        0.3013630162
 O         -1.5109684034        0.7815855015       -0.2882665124
 C         -1.4946898317       -0.4392497948        0.2699331834
 O         -0.9445871492       -0.6933639183        1.3090141344
 C         -2.2362722002       -1.4202107797       -0.5882789867
 H          3.0737666558       -0.9363524064        1.0791487542
 H          2.5631487292       -2.2663513539       -0.0077232281
 H          1.5381219887       -1.7668448070        1.3508358483
 H          1.2024218624        2.7389506993       -0.0851345712
 H          0.6402969759        1.6269993501       -1.3822610936
 H         -1.2024254692        2.7389604850        0.0854131461
 H         -0.6403266012        1.6270173736        1.3825644915
 H         -1.5406858077       -1.7644864087       -1.3531118834
 H         -3.0765566149       -0.9362842775       -1.0758600262
 H         -2.5613801132       -2.2673298276        0.0075089288
  20
        -34.23870351
 C          2.2414707701       -1.4203890853       -0.6289070674
 C          1.5329995380       -0.4247477131        0.2405609359
 O          1.0396192161       -0.6532973083        1.3124764267
 O          1.5079895440        0.7818543806       -0.3508820442
 C          0.7165250866        1.7954317993        0.2523800486
 C         -0.7127198297        1.7743106792       -0.2989344554
 O         -1.4956070590        0.7696724305        0.3331769016
 C         -1.5148152271       -0.4533684308       -0.2165457446
 O         -0.9655570877       -0.7327039791       -1.2494592243
 C         -2.3393096387       -1.3956664374        0.6130678900
 H          1.5199366831       -1.7708817972       -1.3662697680
 H          2.5834748547       -2.2604474237       -0.0327207741
 H          3.0670263055       -0.9464124577       -1.1503903749
 H          0.6938414233        1.6464871321        1.3376468511
 H          1.1967980232        2.7432525776        0.0037779218
 H         -0.6834949576        1.5904794651       -1.3786689298
 H         -1.2097149360        2.7214958177       -0.0825614701
 H         -3.3535797335       -1.4134780634        0.2182676464
 H         -2.3607317061       -1.0594726533        1.6442119251
 H         -1.9218920977       -2.3957691860        0.5447733535
  20
        -34.23806996
 C          2.9768236849       -1.1350888710        0.3441477826
 C          1.7564023306       -0.4701534805       -0.2323778203
 O          0.9346024399       -1.0104091692       -0.9226302380
 O          1.7091801306        0.8200120352        0.1310081634
 C          0.5671425295        1.5762524784       -0.2549501151
 C         -0.5248527401        1.4947748387        0.8144414679
 O         -1.0225734372        0.1705054280        0.9284132342
 C         -1.8845155835       -0.2296922675       -0.0272025867
 O         -2.3354404214        0.5116468096       -0.8574846725
 C         -2.1706649729       -1.6955912739        0.0975356394
 H          2.7121664831       -1.5568535032        1.3122199156
 H          3.7702977793       -0.4079054309        0.4839188325
 H          3.2983064938       -1.9406532397       -0.3092153539
 H          0.9048442174        2.6075241811       -0.3672408432
 H          0.1779347520        1.1950509334       -1.2047570943
 H         -1.3389522122        2.1758232219        0.5449397488
 H         -0.1195224691        1.7451039797        1.7963620520
 H         -2.1977382160       -1.9896346829        1.1421770953
 H         -1.3513128831       -2.2209041124       -0.3922468753
 H         -3.1024517638       -1.9378908745       -0.4033458494
  20
        -34.23794809
 C          2.8940318155       -0.7804191209       -1.1893956552
 C          1.7583115371       -0.4669742635       -0.2527782953
 O          1.0172354812       -1.2806763833        0.2297608201
 O          1.6959195081        0.8499420493       -0.0094231233
 C          0.6470659008        1.3219187208        0.8289769428
 C         -0.5893918664        1.6835001958        0.0026168848
 O         -1.1461088843        0.5291542629       -0.6067832432
 C         -1.8744902645       -0.2767925345        0.1902349664
 O         -2.1734833469        0.0095202446        1.3177152000
 C         -2.2287302338       -1.5471703251       -0.5218592289
 H          2.5169919937       -1.3650810781       -2.0248735193
 H          3.6291102840       -1.3844145588       -0.6616920216
 H          3.3536820935        0.1356552247       -1.5448615173
 H          0.3850661671        0.5494881614        1.5594388991
 H          1.0325736828        2.2093110761        1.3331909717
 H         -0.3209510220        2.3519063405       -0.8172611862
 H         -1.3309687126        2.1514943163        0.6586187984
 H         -1.3726236575       -2.2139540172       -0.4233915955
 H         -2.4017278643       -1.3558395425       -1.5763245400
 H         -3.0956826014       -2.0062420540       -0.0576997539
  20
        -34.23790945
 C          2.1863041495       -1.6889059713       -0.1072925739
 C          1.8901217037       -0.2264130416        0.0336303830
 O          2.3260273926        0.5058977239        0.8799985167
 O          1.0388327109        0.1818314109       -0.9276440816
 C          0.5340424079        1.5023495573       -0.8045899331
 C         -0.5698296646        1.5687523565        0.2536165329
 O         -1.7051594024        0.8113655328       -0.1495604960
 C         -1.7585796491       -0.4782570850        0.2152905042
 O         -0.9326551449       -1.0248046434        0.8953695925
 C         -3.0096000247       -1.1232800694       -0.3172427374
 H          3.1169347642       -1.9316695174        0.3955529461
 H          2.2203173576       -1.9698523551       -1.1553329881
 H          1.3678278022       -2.2252841942        0.3717806564
 H          1.3421026826        2.1838397015       -0.5181618193
 H          0.1390271310        1.7620668224       -1.7882364865
 H         -0.9130273580        2.5977730599        0.3709678484
 H         -0.1879226607        1.1815053847        1.2039194006
 H         -2.9013785241       -2.2032718609       -0.2971581482
 H         -3.2093367172       -0.7740918318       -1.3256596843
 H         -3.8456594619       -0.8379032676        0.3183266378
  20
        -34.23678591
 C          2.9636327391       -0.7466588564       -1.1704935683
 C          1.8055398201       -0.4587919918       -0.2530865513
 O          1.0807019913       -1.2858478762        0.2287554166
 O          1.7081680265        0.8592055034       -0.0174128611
 C          0.6488040093        1.3032101943        0.8223729281
 C         -0.5906731806        1.6568882698       -0.0019690275
 O         -1.1574712715        0.5017232573       -0.6024487594
 C         -1.9028704251       -0.2851099377        0.1943595220
 O         -2.1588379754       -0.0115223785        1.3356985175
 C         -2.3867818849       -1.4973278796       -0.5477147667
 H          2.6950748319       -1.5461251894       -1.8550418853
 H          3.8060091792       -1.0823877470       -0.5685391776
 H          3.2466882530        0.1489670046       -1.7136350946
 H          0.3966765141        0.5177262364        1.5423164217
 H          1.0172014289        2.1909033315        1.3389924001
 H         -0.3244064355        2.3191571321       -0.8277066570
 H         -1.3282141755        2.1313123432        0.6540770407
 H         -2.4028649869       -2.3466403992        0.1287078728
 H         -1.7401945904       -1.6967263089       -1.3955524689
 H         -3.4005130240       -1.3139419860       -0.8992240195
  20
        -34.23661423
 C          3.1199255504       -1.4292231830       -0.4685097665
 C          2.3299710736       -0.1495457022       -0.4803392037
 O          2.5053471192        0.7726010824       -1.2311226417
 O          1.3814463312       -0.1656250515        0.4677184224
 C          0.5323973177        0.9724524233        0.5488075455
 C         -0.5325692768        0.9730074211       -0.5485730785
 O         -1.3820018142       -0.1647852756       -0.4681569941
 C         -2.3300864312       -0.1491262500        0.4804415867
 O         -2.5049866276        0.7725872273        1.2318197910
 C         -3.1196185894       -1.4290187478        0.4681981181
 H          2.6027091268       -2.1593256866       -1.0884817851
 H          3.1880162211       -1.8185203692        0.5424385885
 H          4.1071859651       -1.2539015323       -0.8849310013
 H          0.0639141344        0.9229673751        1.5328375281
 H          1.1301946738        1.8848296793        0.4543429355
 H         -0.0641447420        0.9239512775       -1.5326407843
 H         -1.1299472434        1.8856166600       -0.4535458731
 H         -4.0931111619       -1.2631311441        0.9192171806
 H         -2.5817774983       -2.1719425158        1.0543761512
 H         -3.2201782832       -1.7971995603       -0.5480179241
  20
        -34.23656608
 C          3.1583603263       -1.4163920570       -0.3561823210
 C          2.3737912725       -0.1553814402       -0.1184570650
 O          2.7309153248        0.7722472355        0.5573833161
 O          1.2123630835       -0.1826308045       -0.7883281802
 C          0.3744303210        0.9607802418       -0.6728831128
 C         -0.3806511615        0.9844976093        0.6567456838
 O         -1.2233209374       -0.1505571273        0.8115060677
 C         -2.3776672188       -0.1484086613        0.1290361883
 O         -2.7351293548        0.7600546885       -0.5722378326
 C         -3.1381929746       -1.4249616782        0.3611445419
 H          2.4853861664       -2.2447389512       -0.5530239239
 H          3.7882758061       -1.6228840108        0.5038181768
 H          3.7962698845       -1.2681675856       -1.2256575616
 H          0.9795497067        1.8702610546       -0.7459209172
 H         -0.3264185226        0.9001458559       -1.5068185193
 H         -0.9823616766        1.8982147165        0.6994188654
 H          0.3201945175        0.9488046991        1.4920327542
 H         -2.7855215289       -2.1703915437       -0.3494006158
 H         -4.1975210101       -1.2558780012        0.1938563470
 H         -2.9570244051       -1.7914651069        1.3666737012
  20
        -34.23652652
 C          3.2222608823       -1.3823324342       -0.3591744937
 C          2.4060650820       -0.1430518303       -0.1141868844
 O          2.7411976405        0.7909671278        0.5642586720
 O          1.2436053812       -0.1976281010       -0.7807084620
 C          0.3816527701        0.9275692772       -0.6644485867
 C         -0.3827024439        0.9322554339        0.6598983022
 O         -1.2446772208       -0.1920975229        0.7845448882
 C         -2.4053038502       -0.1445294326        0.1145432390
 O         -2.7385897723        0.7824120857       -0.5746005120
 C         -3.2229762009       -1.3806802382        0.3702541823
 H          3.7967319707       -1.2431859910       -1.2732320784
 H          2.5701196786       -2.2406131622       -0.4865094865
 H          3.9109968388       -1.5362700790        0.4659159401
 H          0.9698125198        1.8487853088       -0.7291119014
 H         -0.3127200022        0.8581758529       -1.5030675412
 H         -0.9708698783        1.8538837258        0.7181431696
 H          0.3116732728        0.8687643782        1.4989973855
 H         -3.8545229246       -1.5859133682       -0.4889233875
 H         -3.8608422040       -1.2001274548        1.2337063983
 H         -2.5728005111       -2.2225845254        0.5852918120
  20
        -34.23652552
 C          3.1814573006       -1.3983820248       -0.4437960851
 C          2.3437785691       -0.1498166913       -0.4844497084
 O          2.5075282918        0.7761557154       -1.2333060516
 O          1.3871009966       -0.1853544736        0.4545043888
 C          0.5337878179        0.9486137693        0.5484930201
 C         -0.5350279700        0.9536922607       -0.5451623861
 O         -1.3920942795       -0.1777336655       -0.4589795649
 C         -2.3461555494       -0.1466186746        0.4833486174
 O         -2.5083018984        0.7758422697        1.2365644367
 C         -3.1754709727       -1.4007026388        0.4434111785
 H          2.6086285596       -2.2211551463       -0.0284377852
 H          4.0461936397       -1.2138621835        0.1911483362
 H          3.5335583787       -1.6349911703       -1.4435142984
 H          0.0688073949        0.8894248961        1.5336626819
 H          1.1274191127        1.8641942588        0.4589287772
 H         -0.0698265496        0.8989747523       -1.5304847118
 H         -1.1253952231        1.8708743143       -0.4502939393
 H         -3.7624805930       -1.4085527933       -0.4723094860
 H         -3.8392051204       -1.4279207863        1.3018378231
 H         -2.5243893864       -2.2703752109        0.4367956685
  20
        -34.23651784
 C          3.2320716270       -1.3717094436       -0.4417062971
 C          2.3697349858       -0.1401175830       -0.4806164788
 O          2.5213511439        0.7954336716       -1.2199646370
 O          1.4047784544       -0.2034011086        0.4487693697
 C          0.5333312780        0.9161304697        0.5478796579
 C         -0.5331011892        0.9158217703       -0.5478999598
 O         -1.4044547130       -0.2037389200       -0.4483493507
 C         -2.3697884615       -0.1400100075        0.4805883988
 O         -2.5216229950        0.7958304134        1.2195159086
 C         -3.2322621057       -1.3715256258        0.4417882376
 H          2.6314399373       -2.2408974917       -0.1925789894
 H          3.9885955069       -1.2403687131        0.3298190868
 H          3.7268627933       -1.5028335149       -1.3991470877
 H          0.0667355135        0.8439431695        1.5314154158
 H          1.1139953444        1.8407829003        0.4664103629
 H         -0.0664343059        0.8431911117       -1.5313723247
 H         -1.1138658677        1.8404422741       -0.4669014386
 H         -3.9913955335       -1.2382490864       -0.3268495436
 H         -3.7240212312       -1.5047112529        1.4005151059
 H         -2.6325706288       -2.2402118634        0.1887452309
  20
        -34.23622282
 C          3.9626412732       -0.3040833942        0.1457565677
 C          2.5978957966       -0.0648425695       -0.4386098182
 O          2.3028238538       -0.1854164626       -1.5968869176
 O          1.7358141755        0.3303658172        0.5115767387
 C          0.4120884386        0.6402570013        0.1010064454
 C         -0.4130037338       -0.6343888183       -0.1134091398
 O         -1.7391038803       -0.3238850947       -0.5157943776
 C         -2.5972930622        0.0629185942        0.4415483728
 O         -2.2967057634        0.1755457301        1.5991727781
 C         -3.9652964667        0.3038042741       -0.1343029579
 H          3.8819197869       -0.5408722853        1.2016154549
 H          4.5514593267        0.6042712252        0.0314065203
 H          4.4576802525       -1.1042453339       -0.3965044445
 H         -0.0182605786        1.2344826116        0.9092586288
 H          0.4371212760        1.2171297329       -0.8302567821
 H         -0.4327621115       -1.2137686689        0.8164572367
 H          0.0135545051       -1.2261015027       -0.9254745264
 H         -3.8878878653        0.5816883671       -1.1803906702
 H         -4.4725478000        1.0750504574        0.4375875189
 H         -4.5398082675       -0.6174979240       -0.0567421231
  20
        -34.23488705
 C          3.9644698831        0.2725686426        0.0311177731
 C          2.5309568071       -0.1840850978        0.0299608632
 O          2.1311617140       -1.2300397815        0.4619873793
 O          1.7390941481        0.7387483380       -0.5408664633
 C          0.3599823108        0.4198072264       -0.6769047827
 C         -0.3596027032        0.4152452261        0.6789389480
 O         -1.7388126395        0.7350117330        0.5463000533
 C         -2.5310402197       -0.1831638777       -0.0314927115
 O         -2.1312481357       -1.2247136468       -0.4740474363
 C         -3.9649940246        0.2720813578       -0.0249979569
 H          4.0141206691        1.3564646962        0.0129418395
 H          4.4510813492       -0.1175531555       -0.8610102313
 H          4.4744321648       -0.1263238325        0.9029181917
 H         -0.0548081626        1.2058343265       -1.3121931746
 H          0.2478541989       -0.5550213924       -1.1610075355
 H          0.0555157061        1.1969982306        1.3193082612
 H         -0.2471390301       -0.5628055742        1.1564628468
 H         -4.4496382680       -0.1292725949        0.8632136550
 H         -4.4760910532       -0.1169185188       -0.9005866898
 H         -4.0157079769        1.3556187542        0.0062263310
  20
        -34.23480029
 C          3.9360136211        0.2850048315       -0.3936562092
 C          2.5188463422       -0.1906402442       -0.2224584015
 O          2.0868074366       -1.2455524942       -0.5976645316
 O          1.7779005809        0.7384054878        0.4043060963
 C          0.4122133425        0.4268324078        0.6477498792
 C         -0.4113880893        0.4263695227       -0.6473789667
 O         -1.7770907434        0.7380906995       -0.4035531764
 C         -2.5181496081       -0.1896487841        0.2241912780
 O         -2.0859494833       -1.2433110851        0.6031012081
 C         -3.9382752117        0.2809703927        0.3862904980
 H          4.1752515190        1.0331434349        0.3549914605
 H          4.0354768945        0.7281758296       -1.3828195773
 H          4.6137822586       -0.5609553174       -0.3279263180
 H          0.3338399720       -0.5481785271        1.1383433154
 H          0.0523725679        1.2145969307        1.3136838396
 H         -0.3331235698       -0.5489362079       -1.1373828843
 H         -0.0518744054        1.2138082061       -1.3138884726
 H         -4.1166043479        0.4994397820        1.4371738080
 H         -4.6168029463       -0.5140612727        0.0890230826
 H         -4.1099786986        1.1730014355       -0.2067463047
  20
        -34.23412726
 C          3.9013962697       -0.0271076279       -0.7979794793
 C          2.6201777629       -0.2425778835       -0.0409396121
 O          2.3181788029       -1.2416195966        0.5500560617
 O          1.8409738352        0.8525853802       -0.1126399846
 C          0.5650269481        0.8012850986        0.5090684005
 C         -0.5283047902        0.6419907949       -0.5519296116
 O         -1.8039568803        0.7892546014        0.0562049903
 C         -2.6331652803       -0.2705653333        0.0549228971
 O         -2.3815019151       -1.3195707251       -0.4690870865
 C         -3.8984758036        0.0540247735        0.8000930049
 H          4.0718978029        1.0325858859       -0.9568610043
 H          3.8206771522       -0.5266051951       -1.7616349770
 H          4.7264678637       -0.4751905572       -0.2517159515
 H          0.5349679644       -0.0362068479        1.2145802329
 H          0.4288935774        1.7460271834        1.0418134947
 H         -0.4623639957       -0.3426740221       -1.0278781239
 H         -0.4271433718        1.4274905172       -1.3069059547
 H         -3.7876756555       -0.2838952023        1.8288615033
 H         -4.7326004340       -0.4777220391        0.3520992697
 H         -4.0731821715        1.1249276669        0.7971367395
  20
        -34.23410901
 C          3.1227730234       -0.8973811990       -1.5070578837
 C          2.4682794497       -0.3247980651       -0.2789319712
 O          2.9181456172       -0.3594381171        0.8342645012
 O          1.2900372098        0.2377888486       -0.5812610547
 C          0.5536154491        0.7925592073        0.5049294515
 C         -0.7153146844        1.4327355636       -0.0432859724
 O         -1.6285702140        0.4644070682       -0.5420436464
 C         -2.3860815755       -0.1790525381        0.3593145455
 O         -2.3408546251        0.0365642637        1.5407776107
 C         -3.2876225756       -1.1788112207       -0.3115678684
 H          2.6508540753       -0.5056525338       -2.4020263405
 H          3.0149135177       -1.9800718954       -1.4854217912
 H          4.1836606440       -0.6634208345       -1.4950203922
 H          0.3079922296        0.0040661791        1.2242570983
 H          1.1662101633        1.5441142380        1.0143303509
 H         -0.4781860510        2.0741697294       -0.8931395913
 H         -1.1945764595        2.0065715978        0.7567671349
 H         -3.1438997125       -1.1522770753       -1.3864868974
 H         -4.3210295145       -0.9498040626       -0.0625938208
 H         -3.0640872539       -2.1715679167        0.0723161438
  20
        -34.23408754
 C          2.7982715906       -0.9306225943       -1.4663730904
 C          2.1327333931       -0.3852677983       -0.2319731030
 O          2.0439013603       -0.9551137148        0.8200631093
 O          1.6494319009        0.8468112462       -0.4670699984
 C          0.8920673244        1.4672713569        0.5634387720
 C         -0.5964626043        1.3817393453        0.2495639714
 O         -0.9948300900        0.0210972248        0.3705849085
 C         -2.2787314808       -0.2590859816        0.1125508823
 O         -3.0857160417        0.5745919770       -0.2006636795
 C         -2.5436076770       -1.7322841524        0.2581477234
 H          2.0611272594       -1.4987671724       -2.0309219405
 H          3.6057955376       -1.5987307647       -1.1823845801
 H          3.1652268413       -0.1187067201       -2.0860530197
 H          1.1011797832        0.9618342863        1.5120955043
 H          1.2042062582        2.5126682879        0.6046433283
 H         -0.7983539816        1.7299173804       -0.7696159238
 H         -1.1713031821        1.9964785470        0.9504891869
 H         -2.5930467786       -2.1772203886       -0.7339721229
 H         -3.5026660197       -1.8833780696        0.7455166082
 H         -1.7431845978       -2.1999726166        0.8224120425
  20
        -34.23398046
 C          3.1548728057       -1.2068872772        0.1291966050
 C          2.1256325311       -0.3287265040       -0.5302878857
 O          1.6987070422       -0.4743339880       -1.6421716669
 O          1.7693164060        0.6739560246        0.2900111527
 C          0.7760680700        1.5837858386       -0.1647834877
 C         -0.5586676710        1.2964479397        0.5111115232
 O         -1.0815323275        0.0895374773       -0.0315753010
 C         -2.2724081508       -0.3139426211        0.4295353975
 O         -2.8905108150        0.2830309926        1.2699531361
 C         -2.7093302850       -1.5811845428       -0.2519932703
 H          4.1357370479       -0.9464764497       -0.2641463505
 H          2.9560849523       -2.2460950176       -0.1168906440
 H          3.1481429525       -1.0562278189        1.2036386252
 H          1.1177513031        2.5867059792        0.0996180242
 H          0.6706892969        1.4828958283       -1.2501327896
 H         -1.2634239607        2.1148992109        0.3289341633
 H         -0.4273862493        1.1817901953        1.5929218847
 H         -3.0604120821       -2.2915850821        0.4918123889
 H         -1.8877983405       -1.9973699104       -0.8260009479
 H         -3.5396704080       -1.3511713304       -0.9167069861
  20
        -34.23373999
 C          3.8269583739        0.7762635607       -0.4911876403
 C          2.5883445505       -0.0632595399       -0.3372053722
 O          2.4148628855       -1.1512987433       -0.8152685023
 O          1.6713143112        0.5725540942        0.4099350388
 C          0.4477388385       -0.1162784737        0.6360352723
 C         -0.4421833698       -0.1538094588       -0.6175764746
 O         -1.6675381685        0.5437519396       -0.4318310459
 C         -2.5851044262       -0.0516241499        0.3471654190
 O         -2.4025105998       -1.1016299370        0.9011423982
 C         -3.8480471508        0.7630780539        0.4049775519
 H          4.0668172000        1.2609797969        0.4503531889
 H          3.6367774464        1.5475486345       -1.2350182174
 H          4.6511030112        0.1542122266       -0.8258523042
 H          0.6633052339       -1.1329752768        0.9756968170
 H         -0.0501646430        0.4397404978        1.4320154598
 H         -0.6543588445       -1.1890802131       -0.8981347123
 H          0.0542257379        0.3569245189       -1.4443869466
 H         -4.3655113640        0.5709620699        1.3399731878
 H         -4.4926954245        0.4594995072       -0.4178796744
 H         -3.6190248399        1.8184690149        0.2963384655
  20
        -34.23308662
 C          4.1273471033       -0.0159929156        0.3352525664
 C          2.9039947458       -0.0460942815       -0.5385395623
 O          2.8895965507       -0.2571754143       -1.7202250414
 O          1.7950713405        0.1813538046        0.1849141499
 C          0.5599487338        0.1455753497       -0.5194606483
 C         -0.5618075790        0.1682870949        0.5083508537
 O         -1.7997885359        0.1781912206       -0.1914329241
 C         -2.9016773341       -0.0629145885        0.5387970578
 O         -2.8763873718       -0.2886380537        1.7176097804
 C         -4.1358902524        0.0054109436       -0.3171126892
 H          3.9475649185        0.5976078899        1.2119962713
 H          4.9738437366        0.3564828951       -0.2338796579
 H          4.3481241447       -1.0326343491        0.6554137701
 H          0.4879884087        1.0137207505       -1.1838794556
 H          0.5098959099       -0.7594068523       -1.1346280393
 H         -0.4849723016        1.0632427311        1.1356714444
 H         -0.5126534660       -0.7105988083        1.1603373345
 H         -4.9055639095       -0.6364392279        0.1007435604
 H         -3.9014968291       -0.2810789734       -1.3373032603
 H         -4.5011895046        1.0308214814       -0.3163233624
  20
        -34.23144978
 C          3.7852508657       -0.9795325492        0.1016427070
 C          2.8139608837        0.1450496562       -0.1312559108
 O          3.0790247449        1.3164681809       -0.1039045220
 O          1.5828372738       -0.3247561856       -0.3831095940
 C          0.5710887283        0.6488150901       -0.6253287753
 C         -0.7626618308       -0.0700999269       -0.8027909375
 O         -1.7120408635        0.4905314906        0.0989647921
 C         -2.7587261619       -0.2791543353        0.4366653195
 O         -2.9220484730       -1.3950290669        0.0238697021
 C         -3.6794086389        0.4510508194        1.3754813297
 H          4.2773174168       -0.8338328805        1.0601459520
 H          4.5482970365       -0.9534267187       -0.6730429116
 H          3.2685563374       -1.9332505228        0.0825767960
 H          0.5113495817        1.3308761453        0.2300636974
 H          0.8446930782        1.2348219366       -1.5079567168
 H         -0.6404586148       -1.1361526594       -0.5804753984
 H         -1.1452086193        0.0286468845       -1.8231503799
 H         -4.0900563364       -0.2479213863        2.0983416874
 H         -4.5025904864        0.8684431355        0.7984701054
 H         -3.1493445247        1.2568364042        1.8725151098
