  20
        -34.23975893
 C          2.2354351074       -1.4205290511        0.5884798891
 C          1.4948301703       -0.4391481141       -0.2700606707
 O          0.9456076593       -0.6927683598       -1.3097318918
 O          1.5107333480        0.7814893046        0.2886152983
 C          0.7045305492        1.7923094005       -0.3010607713
 C         -0.7045764329        1.7923076573        0.3013630162
 O         -1.5109684034        0.7815855015       -0.2882665124
 C         -1.4946898317       -0.4392497948        0.2699331834
 O         -0.9445871492       -0.6933639183        1.3090141344
 C         -2.2362722002       -1.4202107797       -0.5882789867
 H          3.0737666558       -0.9363524064        1.0791487542
 H          2.5631487292       -2.2663513539       -0.0077232281
 H          1.5381219887       -1.7668448070        1.3508358483
 H          1.2024218624        2.7389506993       -0.0851345712
 H          0.6402969759        1.6269993501       -1.3822610936
 H         -1.2024254692        2.7389604850        0.0854131461
 H         -0.6403266012        1.6270173736        1.3825644915
 H         -1.5406858077       -1.7644864087       -1.3531118834
 H         -3.0765566149       -0.9362842775       -1.0758600262
 H         -2.5613801132       -2.2673298276        0.0075089288
