! r2scan-3c def2/J RI DEFGRID2 scfconv6 printgap
%output
    printlevel normal
end
* xyz 0 1
C -1.7661609466 0.9752543577 -0.3421888428
C -1.0530034089 0.2101996522 0.7687745266
C 0.1335226496 -0.6497000488 0.3015236921
C 1.197425349 0.1216012289 -0.4907604697
C 1.863550592 1.2282612508 0.3170644351
O -0.3052656394 -1.7839181834 -0.4305688534
H -2.1230704425 0.301099769 -1.1173490741
H -2.6276914774 1.4943308772 0.0705887876
H -1.1114880145 1.7152883428 -0.7943260253
H -0.6937131021 0.9105126824 1.5228484615
H -1.7642484019 -0.462760056 1.2534787137
H 0.6061889332 -1.081837479 1.1928165426
H 1.9529159621 -0.6024775591 -0.805455226
H 0.7475495295 0.5403526302 -1.3928699454
H 2.6755920199 1.6684180616 -0.2560728157
H 1.155075772 2.0142891871 0.5631080314
H 2.2722930794 0.8296150081 1.2426033226
H -0.7164228344 -1.479543525 -1.2513871724
*
