! r2scan-3c def2/J RI DEFGRID2 scfconv6 printgap
%output
    printlevel normal
end
%cpcm
    smd true
    smdsolvent "water"
end
* xyz 0 1
C 1.5604565777 -1.1922524479 -0.6521167238
C 1.062317478 -0.2659114093 0.4565925491
C 1.2492991549 1.195659189 0.0596135604
C -0.3881494557 -0.5730487299 0.8584692766
C -1.4489699956 -0.3533397261 -0.2205441712
O -1.7545229879 1.0250538586 -0.3291459662
H 1.0602601852 -0.979085266 -1.5933505885
H 1.3834026958 -2.233223254 -0.3917785411
H 2.6282184006 -1.0515160025 -0.8016874918
H 1.6726739343 -0.4555840685 1.3481993624
H 0.9183980599 1.8526086831 0.8601880612
H 0.6664462316 1.4296010418 -0.8265731638
H 2.2972542553 1.3997273287 -0.1485222555
H -0.6582447941 0.0552867089 1.7096141941
H -0.4450855158 -1.616349109 1.1746517521
H -1.1017411493 -0.7430619262 -1.185115705
H -2.3536772137 -0.907345375 0.0668829233
H -2.4668677939 1.1451101136 -0.9700818022
*
