! r2scan-3c def2/J RI DEFGRID2 scfconv6 printgap
%output
    printlevel normal
end
%cpcm
    smd true
    smdsolvent "water"
end
* xyz 0 1
C 1.8229002707 1.3257986564 0.0041614085
C 0.9925421918 0.3320895137 0.8100685243
C -6.55882e-05 -0.5225042377 1.47575e-05
C 0.7574306576 -1.4240179468 -0.9822618464
C -0.7586089176 -1.4230572938 0.9823557421
C -0.9916513634 0.3330987697 -0.8102091256
C -1.8225038029 1.3262573653 -0.0041444916
H 2.5004778938 1.8571419922 0.6692643192
H 1.191516113 2.0598409022 -0.488953328
H 2.4201570851 0.8194244372 -0.7490891564
H 1.6729451667 -0.3482653129 1.3287733869
H 0.4403417746 0.8777631166 1.5777031309
H 1.2444187938 -0.8383820966 -1.7574719684
H 0.0692324358 -2.1142371555 -1.4653942321
H 1.5146771808 -2.0054068856 -0.4610160504
H -1.2445104786 -0.8368367473 1.7577854131
H -1.5168527985 -2.0033121157 0.4613001387
H -0.0712822585 -2.1143028123 1.4652278887
H -0.4385299048 0.8793059688 -1.5767920034
H -1.6717882979 -0.3465365052 -1.3302023675
H -2.4981130935 1.8597096068 -0.6695471275
H -2.421904441 0.8191727162 0.7468789765
H -1.1913029338 2.0585916563 0.4917121032
*
