! r2scan-3c def2/J RI DEFGRID2 scfconv6 printgap
%output
    printlevel normal
end
* xyz 0 1
C 3.3890447907 -0.7374238223 0.1022292521
C 2.031448645 -0.2183093498 0.4713663581
C 1.4768029321 -0.4920826549 1.6418158623
C 1.3699367709 0.623179566 -0.5969402401
H 2.1649467445 1.1580064968 -1.1271640235
C 0.6363959978 -0.2634776389 -1.6160021919
C -0.505045482 -1.0291572779 -0.9547132046
C -1.3935391238 -0.0965663382 -0.1843178824
C -0.9637558982 1.1080008341 0.2298930701
C 0.3860107292 1.6579767069 -0.0404518087
C -2.7384551381 -0.5332660299 0.1377991781
O -3.5651010354 0.0998624721 0.7731241049
H 3.768157143 -1.4142945645 0.8625547558
H 3.3516170095 -1.2642523601 -0.8493760015
H 4.088034783 0.0910865526 -0.0056061056
H 0.5055540713 -0.1271865601 1.928546045
H 1.9800272043 -1.1059028128 2.370569452
H 0.2314826022 0.3749692162 -2.4029889528
H 1.3319323315 -0.9665055716 -2.0747165036
H -1.0902131997 -1.5595321524 -1.7082674149
H -0.0971814069 -1.7749568697 -0.2659920508
H -1.6528818858 1.7361020352 0.7806046012
H 0.2663825311 2.4712521466 -0.7636489215
H 0.7849528786 2.109874559 0.8703750434
H -2.9998417259 -1.5387952372 -0.2428887152
*
