  20
        -33.05950564
 C         -0.2660469543       -1.9679094905       -1.0316135246
 O         -0.3735677141       -0.5558789008       -1.0668593349
 C         -0.4795555383        0.0872172646        0.1727074954
 C          0.7297191845       -0.1712713423        1.1077632333
 Cl         2.2718882480       -0.1980716652        0.2470936822
 O         -0.6917661372        1.4374007139       -0.0723924164
 C          0.2682354786        2.1131102098       -0.8703829709
 O         -1.5593464315       -0.3840645411        0.9149453631
 C         -2.8423509516       -0.0846640681        0.3717222649
 H          0.7506799890       -2.2802592092       -0.7782076022
 H         -0.5079242853       -2.3028077007       -2.0382213098
 H         -0.9728479486       -2.3960130752       -0.3167092261
 H          0.5947538847       -1.1347113468        1.5965695046
 H          0.7616391754        0.6225747394        1.8524627199
 H         -0.2007096804        3.0578037589       -1.1371711499
 H          0.4982671505        1.5429573687       -1.7707182903
 H          1.1857746345        2.3053683299       -0.3079905737
 H         -3.5431510972       -0.6924863810        0.9392326476
 H         -2.8816271868       -0.3464137278       -0.6876594745
 H         -3.0699811184        0.9748004977        0.4943748293
