  20
        -33.05950564
 C         -0.2660469543       -1.9679094905       -1.0316135246
 O         -0.3735677141       -0.5558789008       -1.0668593349
 C         -0.4795555383        0.0872172646        0.1727074954
 C          0.7297191845       -0.1712713423        1.1077632333
 Cl         2.2718882480       -0.1980716652        0.2470936822
 O         -0.6917661372        1.4374007139       -0.0723924164
 C          0.2682354786        2.1131102098       -0.8703829709
 O         -1.5593464315       -0.3840645411        0.9149453631
 C         -2.8423509516       -0.0846640681        0.3717222649
 H          0.7506799890       -2.2802592092       -0.7782076022
 H         -0.5079242853       -2.3028077007       -2.0382213098
 H         -0.9728479486       -2.3960130752       -0.3167092261
 H          0.5947538847       -1.1347113468        1.5965695046
 H          0.7616391754        0.6225747394        1.8524627199
 H         -0.2007096804        3.0578037589       -1.1371711499
 H          0.4982671505        1.5429573687       -1.7707182903
 H          1.1857746345        2.3053683299       -0.3079905737
 H         -3.5431510972       -0.6924863810        0.9392326476
 H         -2.8816271868       -0.3464137278       -0.6876594745
 H         -3.0699811184        0.9748004977        0.4943748293
  20
        -33.05910462
 C          0.5526629523       -0.8688420786       -1.9897791958
 O         -0.4083060964       -0.5874496795       -0.9872275866
 C         -0.0815351929        0.4260197076       -0.0918163140
 C          1.2591547462        0.2136998071        0.6428311722
 Cl         1.3378070615       -1.4167052639        1.3050943412
 O          0.1020395934        1.6542395406       -0.7497877972
 C         -1.0690386325        2.2138254328       -1.3270119405
 O         -1.0843113788        0.5202645903        0.8694811124
 C         -2.2554340137       -0.2666311999        0.7132488589
 H          0.0182404687       -1.4320609182       -2.7522259382
 H          1.3680714947       -1.4780153290       -1.5909459478
 H          0.9512264688        0.0539777209       -2.4183740700
 H          1.3031295249        0.9238723552        1.4660622580
 H          2.0957492098        0.3630300658       -0.0366914786
 H         -1.5292109661        1.5151315421       -2.0316089602
 H         -0.7342508020        3.1055040737       -1.8512744596
 H         -1.7879363506        2.4842724320       -0.5503297354
 H         -2.8827448346        0.0127104125        1.5571669469
 H         -2.0189363767       -1.3314386634        0.7579544117
 H         -2.7690945676       -0.0511200994       -0.2256681626
  20
        -33.05907852
 C         -0.1261112852       -1.5311568782       -1.7356355126
 O         -0.6370695533       -1.3376535968       -0.4250368545
 C         -0.4476105760       -0.0959624568        0.1774915529
 C          0.7484737988       -0.1434762704        1.1598450861
 Cl         2.2938261816       -0.1053556482        0.3103263424
 O         -0.3190278171        0.8676293700       -0.8216722865
 C         -0.1253686933        2.2002282043       -0.3808912906
 O         -1.5329490059        0.1648044748        1.0178638939
 C         -2.8105652507        0.0690490549        0.3971599431
 H         -0.6521868137       -0.9073700028       -2.4605084160
 H         -0.3057930718       -2.5834679202       -1.9451317856
 H          0.9428912643       -1.3181971219       -1.7832612161
 H          0.6843385518       -1.0763155916        1.7171056739
 H          0.7041407028        0.7062178581        1.8388116578
 H          0.9144802778        2.3695600200       -0.0891036379
 H         -0.7895347196        2.4361715456        0.4540499623
 H         -0.3680878378        2.8269419262       -1.2366043486
 H         -3.5179203474        0.4294529885        1.1397163735
 H         -3.0300822871       -0.9668878107        0.1341736872
 H         -2.8521275971        0.6921303942       -0.4997253636
  20
        -33.05908971
 C         -0.0901229261       -1.5514302903       -1.7199949293
 O         -0.6676545184       -1.3318977717       -0.4413215493
 C         -0.4543715216       -0.0996081801        0.1710628766
 C          0.7444012991       -0.1653374073        1.1503323869
 Cl         2.2939815086       -0.0958870149        0.3097621563
 O         -0.3185652254        0.8705249237       -0.8216979605
 C         -0.1192189073        2.1989530331       -0.3713460629
 O         -1.5329583222        0.1659512823        1.0173843357
 C         -2.8148346420        0.0837424313        0.4029836751
 H         -0.5322298563       -0.8932858724       -2.4698574913
 H         -0.3207819467       -2.5897255730       -1.9486015534
 H          0.9909649041       -1.4052302816       -1.7013899408
 H          0.6850690245       -1.1109979914        1.6862069806
 H          0.6926549184        0.6678855116        1.8490689220
 H          0.9203994976        2.3609422878       -0.0746303900
 H         -0.7848573484        2.4329295272        0.4629378431
 H         -0.3555521359        2.8329171309       -1.2234567994
 H         -3.0527196514       -0.9515192770        0.1540560836
 H         -2.8492494288        0.6956635587       -0.5017108632
 H         -3.5129090966        0.4657147387        1.1437031370
  20
        -33.05891010
 C          0.2749831082       -1.2824587496       -1.9434707330
 O         -0.5004140326       -0.9839939335       -0.7946865366
 C         -0.2568974374        0.2281231433       -0.1710722677
 C          1.1912686426        0.3774860918        0.3515231527
 Cl         1.6877776609       -1.0964455569        1.1829149541
 O         -0.5309082449        1.2396879346       -1.1237096665
 C         -0.4856279664        2.5737198978       -0.6561125777
 O         -1.0754162828        0.3307783728        0.9393024647
 C         -2.4493703736        0.0322811085        0.7144570864
 H          1.3017104442       -1.5425280296       -1.6706682552
 H          0.2704150612       -0.4458741580       -2.6438476055
 H         -0.2093550959       -2.1460382175       -2.3936823715
 H          1.2273877401        1.1921029365        1.0725058933
 H          1.8755953964        0.5569755880       -0.4768054033
 H         -1.0587585889        3.1575177299       -1.3740064545
 H          0.5433939502        2.9447318541       -0.6223214733
 H         -0.9381551858        2.6574328067        0.3344642716
 H         -2.5863341647       -1.0386156701        0.5603458445
 H         -2.8227502354        0.5776010769       -0.1549039087
 H         -2.9643142036        0.3552124519        1.6162495457
  20
        -33.05819494
 C         -0.7850770339       -1.2059068725       -2.0570469411
 O          0.0932206761       -0.9082157043       -0.9785075576
 C         -0.1447281572        0.2915231507       -0.3353944065
 C          1.0407919076        0.5230795562        0.6357541823
 Cl         1.5565069846       -0.9603463535        1.4370159279
 O         -0.1665294216        1.3041624549       -1.2987384619
 C         -0.5136254309        2.6063005604       -0.8617902706
 O         -1.3907709238        0.3213918781        0.3107553700
 C         -1.6305143654       -0.6918075560        1.2726190969
 H         -0.5685733243       -0.5634419285       -2.9117197078
 H         -1.8263146434       -1.0732612420       -1.7553087824
 H         -0.5919800372       -2.2468954883       -2.3052266899
 H          0.7586054766        1.2426819877        1.4037902118
 H          1.8859570737        0.8880878647        0.0524798227
 H          0.2831023781        3.0483948800       -0.2562620200
 H         -1.4457649549        2.5935701374       -0.2961776429
 H         -0.6406321894        3.1845483415       -1.7743714718
 H         -2.7089405747       -0.7033506153        1.4192270344
 H         -1.1331947164       -0.4631909199        2.2189888579
 H         -1.2929909688       -1.6655015131        0.9118423347
  20
        -33.05782904
 C          0.1321747782       -1.6953635134       -1.5582190206
 O         -0.7850267260       -1.2782355701       -0.5582267936
 C         -0.4863544120       -0.1133357936        0.1398428103
 C          0.7267820674       -0.2789068222        1.0899004209
 Cl         2.2757843810       -0.0676468272        0.2683603297
 O         -0.3280858673        0.9095240125       -0.8015736998
 C         -0.1110457734        2.2094484172       -0.2834461994
 O         -1.5388246350        0.1306058517        1.0153594655
 C         -2.8354224580        0.2192595494        0.4224392023
 H         -0.3998146142       -2.4509411705       -2.1324859572
 H          1.0278081086       -2.1369967486       -1.1135209209
 H          0.4116638551       -0.8627589686       -2.2043398952
 H          0.6927391018       -1.2808517484        1.5148507376
 H          0.6567248056        0.4640295417        1.8826347437
 H          0.9295843787        2.3428012997        0.0248172467
 H         -0.7738112394        2.4099232058        0.5615386515
 H         -0.3376702409        2.8901584491       -1.1013446898
 H         -3.1979297130        1.2459915093        0.5112965617
 H         -3.4936630205       -0.4557735948        0.9679445812
 H         -2.7973826587       -0.0712696117       -0.6253023971
  20
        -33.05782252
 C         -0.8955641519       -1.4255734973       -1.7542095438
 O          0.0598252466       -0.9996211407       -0.7974228329
 C         -0.3993112760       -0.0981203062        0.1620121616
 C          0.7072609037       -0.0030787993        1.2360804393
 Cl         2.3309232995        0.0551134796        0.5580470174
 O         -0.7542313625        1.1299569271       -0.3948701015
 C          0.2609429850        1.8192168914       -1.1069420090
 O         -1.5126940651       -0.5997648599        0.8474434907
 C         -2.7760221227        0.0152492839        0.6424071233
 H         -0.3400524819       -2.0337835483       -2.4641714808
 H         -1.3466833309       -0.5712666073       -2.2673580665
 H         -1.6742572000       -2.0266480287       -1.2782473268
 H          0.6361884738       -0.8970479776        1.8537667309
 H          0.5465664891        0.8903636083        1.8385750931
 H          0.8219270032        1.1384879341       -1.7502713599
 H          0.9489181658        2.3224703675       -0.4232843899
 H         -0.2618478502        2.5581457845       -1.7114000638
 H         -2.7782289709        1.0382307165        1.0236540159
 H         -3.4703268220       -0.5978287545        1.2134444810
 H         -3.0628479132        0.0252281541       -0.4103476798
  20
        -33.05684619
 C         -0.1836952761       -1.4683807051       -2.2052335961
 O         -0.8847061431       -0.9962042493       -1.0693015533
 C         -0.1760267379       -0.1398527538       -0.2127919763
 C          1.0591082251       -0.8457025166        0.3857327138
 Cl         1.7408025509        0.1463023218        1.6669610480
 O          0.3242707451        0.9696003272       -0.8988275406
 C         -0.6359173479        1.9194908356       -1.3321614553
 O         -1.0152310341        0.2254427740        0.8338362403
 C         -2.4029092039       -0.0470104768        0.7297856425
 H          0.4491194322       -2.3225656643       -1.9483421880
 H          0.4265398300       -0.6767895520       -2.6453535325
 H         -0.9494172267       -1.7824775595       -2.9122119838
 H          1.8245183924       -0.9750941609       -0.3772154419
 H          0.7559301810       -1.7999035915        0.8156375156
 H         -0.0714454266        2.6646255895       -1.8876635214
 H         -1.1280270323        2.3879495027       -0.4767865165
 H         -1.3819242157        1.4536400310       -1.9832113563
 H         -2.8321622348        0.3956683376        1.6262702581
 H         -2.5899184318       -1.1227080667        0.7162431823
 H         -2.8452485801        0.4042102200       -0.1601866753
  20
        -33.05674886
 C         -0.4069186162       -2.2690851047       -0.6968922624
 O         -0.4330936952       -0.8938855966       -1.0377776988
 C         -0.3913630963        0.0126483252        0.0131916796
 C          0.7990417575       -0.2079617121        0.9732857969
 Cl         2.3220029109       -0.1049875937        0.0860079767
 O         -0.3513758379        1.2315353516       -0.6507174107
 C         -0.2273020911        2.3926856860        0.1520195332
 O         -1.5115993214       -0.0979926840        0.8573014031
 C         -2.7659166822        0.0690310980        0.2054585648
 H         -0.7916210871       -2.7898539290       -1.5716792954
 H         -1.0434247374       -2.4772277137        0.1676019106
 H          0.6140584851       -2.6074943251       -0.4968330943
 H          0.7236446002       -1.1917874081        1.4313553824
 H          0.7908443773        0.5543642210        1.7493097070
 H          0.8133263175        2.5620466387        0.4441615675
 H         -0.8578917376        2.3299083962        1.0432126944
 H         -0.5605595261        3.2151404094       -0.4780276645
 H         -2.9052330357       -0.6886668583       -0.5684703791
 H         -2.8382370647        1.0590851636       -0.2495675404
 H         -3.5131409237       -0.0449214755        0.9870003552
  20
        -33.05641211
 C         -0.9324300997       -1.3663780310       -1.7407965421
 O          0.0184804236       -0.9815070304       -0.7636732818
 C         -0.4008066246       -0.0553453052        0.1927643896
 C          0.7310729175        0.0271582970        1.2405070059
 Cl         2.3385328493        0.0004369678        0.5265677575
 O         -0.7304083679        1.1749484717       -0.3801758285
 C          0.2975254226        1.8333914953       -1.1026664747
 O         -1.4921863829       -0.4927809444        0.9420328265
 C         -2.8177238272       -0.1640570193        0.5304663297
 H         -0.3701979468       -1.9314949268       -2.4812148291
 H         -1.3932989261       -0.4937967140       -2.2117839824
 H         -1.7058969515       -2.0015207116       -1.3021044598
 H          0.6375688355       -0.8434567985        1.8873957676
 H          0.6166006920        0.9437022910        1.8175989016
 H         -0.2091572363        2.5845934643       -1.7058873134
 H          0.8348863986        1.1355852771       -1.7480591341
 H          1.0040994959        2.3204062900       -0.4265708912
 H         -3.2920933958        0.3746015794        1.3525653465
 H         -3.3622541736       -1.0912189527        0.3392479717
 H         -2.8215781728        0.4645546762       -0.3560785170
  20
        -33.05519097
 C         -0.8744942671       -0.8958974378       -2.0651678908
 O          0.0870431939       -0.5626721790       -1.0722112248
 C         -0.3336332397        0.3814736912       -0.1373764707
 C          0.8363319436        0.5829541175        0.8560492146
 Cl         1.6165041451       -0.9303726879        1.3223222285
 O         -0.6660905899        1.6065306443       -0.7298609893
 C          0.3066321344        2.1991874423       -1.5749423983
 O         -1.5306847999        0.0405004527        0.4801690553
 C         -1.5342211117       -1.1401492766        1.2674010609
 H         -0.3461989909       -1.5254945931       -2.7771420074
 H         -1.2518294703        0.0032556373       -2.5564198079
 H         -1.7142843087       -1.4413976635       -1.6295280814
 H          0.4551927818        1.0736022367        1.7510883782
 H          1.6037283270        1.1948318286        0.3861421822
 H          0.9401732444        2.8921963145       -1.0128139380
 H         -0.2485988290        2.7565486401       -2.3281819209
 H          0.9267265184        1.4422741571       -2.0604883975
 H         -1.0727992400       -0.9694625925        2.2437741692
 H         -1.0183188733       -1.9609704084        0.7637904139
 H         -2.5849970807       -1.3895971312        1.4017411544
  20
        -33.05394350
 C          0.1280630662       -1.6205997447       -1.6468721661
 O         -0.8511230127       -1.1133332726       -0.7525887340
 C         -0.5268603878        0.0376576410       -0.0474040112
 C          0.5123997709       -0.2527233528        1.0841563919
 Cl         2.1840626091       -0.1895731288        0.5066059950
 O         -0.0766819916        0.9950488188       -0.9467305865
 C          0.0814536158        2.3128248987       -0.4498025989
 O         -1.6925179859        0.5176349819        0.5686741975
 C         -2.6145976002       -0.4421802694        1.0521794078
 H         -0.3924903333       -2.3733473548       -2.2350069399
 H          0.9558896193       -2.0849085919       -1.1042694534
 H          0.5074069718       -0.8326286147       -2.2972698317
 H          0.3332400878       -1.2497070449        1.4853211548
 H          0.4006412534        0.4959618437        1.8679497952
 H          0.2754197862        2.9229988418       -1.3291174421
 H          0.9314374681        2.3792564240        0.2352211190
 H         -0.8273467049        2.6513869518        0.0489616614
 H         -2.1645564698       -1.0728694958        1.8235719776
 H         -2.9917954936       -1.0681069515        0.2431003303
 H         -3.4241778188        0.1440906446        1.4817401583
  20
        -33.05393466
 C         -0.3204604030       -1.6428134338       -2.2906640822
 O         -0.9047476875       -1.2245504430       -1.0702705314
 C         -0.3119392778       -0.1355931226       -0.4167683842
 C          0.9873366170       -0.6445073069        0.2898420351
 Cl         1.4352446800        0.3528020578        1.6817537281
 O         -0.0260933558        0.8340443126       -1.3704317135
 C          0.3411257210        2.1198760354       -0.8939672085
 O         -1.2328302112        0.3857115269        0.4809751475
 C         -1.8302781123       -0.5272285372        1.3858342529
 H         -0.9843503382       -2.4186088513       -2.6657866428
 H          0.6786488731       -2.0587069047       -2.1307808575
 H         -0.2670531195       -0.8190378147       -3.0023446681
 H          1.8139420665       -0.6197616225       -0.4194744797
 H          0.8234423597       -1.6610232998        0.6470994582
 H          1.3474035201        2.1106060473       -0.4669072879
 H         -0.3719538742        2.4790479926       -0.1522552210
 H          0.3220073275        2.7606914891       -1.7726039156
 H         -2.2651782568       -1.3737557630        0.8535489431
 H         -2.6111319397        0.0427948365        1.8840280272
 H         -1.1082847424       -0.8818247033        2.1268621001
  20
        -33.05386535
 C         -0.8677581234       -0.8644455937       -2.0465274509
 O          0.1096632345       -0.4995759782       -1.0777920978
 C         -0.3244768176        0.3975881243       -0.1097028729
 C          0.8192293326        0.5577807421        0.9213656628
 Cl         1.6348892824       -0.9606733803        1.3000595948
 O         -0.6175587793        1.6670587673       -0.6333886322
 C          0.2235698336        2.1428086283       -1.6713504347
 O         -1.5374506021        0.0362370187        0.4637399671
 C         -1.5508404438       -1.1529784949        1.2371678703
 H         -1.6576378879       -0.1142878842       -2.0961257229
 H         -1.3070554571       -1.8311713689       -1.7890332101
 H         -0.3517296295       -0.9395063407       -3.0028537301
 H          0.4041229698        0.9745957406        1.8382426909
 H          1.5725740204        1.2319743066        0.5168635291
 H         -0.1382655255        1.8156440302       -2.6502021735
 H          1.2548142672        1.8056660770       -1.5490080035
 H          0.1786807037        3.2287220657       -1.6116032545
 H         -1.0263590837       -1.9667931646        0.7313230556
 H         -2.6028901195       -1.4056138367        1.3520875022
 H         -1.1039116899       -0.9944578230        2.2222273171
  20
        -33.05309408
 C         -0.1278911118       -1.8215002620       -1.2656249164
 O         -0.5251638650       -0.4675826585       -1.1439542227
 C         -0.3726181498        0.2233537896        0.0586768687
 C          0.5455445993       -0.4259125661        1.1119365324
 Cl         2.2269239250       -0.4584447612        0.5802264311
 O          0.1751299828        1.4678941902       -0.1893491986
 C         -0.5423351195        2.2866107049       -1.1038798609
 O         -1.6337087005        0.4411706774        0.6705156843
 C         -2.5894258199       -0.5959559425        0.6055015405
 H          0.9479929653       -1.9436840182       -1.1261049776
 H         -0.3904166273       -2.0878443389       -2.2882780586
 H         -0.6694250022       -2.4753660617       -0.5757486221
 H          0.2362147969       -1.4434439357        1.3434618412
 H          0.4913020568        0.2001907820        2.0017538736
 H          0.0346664700        3.2050265951       -1.1736025016
 H         -1.5438291177        2.4942746438       -0.7229825701
 H         -0.6082788954        1.8039944304       -2.0807945936
 H         -2.7908257963       -0.8879407600       -0.4279826364
 H         -3.4903687659       -0.1770855636        1.0485320833
 H         -2.2753529837       -1.4712248390        1.1846450338
