  19
        -21.03989937
 C         -3.1218215523        0.8104663426        0.2085969972
 C         -2.1386900333       -0.1889461441       -0.3881668931
 C         -0.7672735728       -0.1007555342        0.2763075615
 C          0.2221493721       -1.1008129578       -0.3155115933
 C          1.6072460088       -0.9865912898        0.3315113092
 C          2.2218134921        0.2961020299        0.0555182580
 C          2.7161338263        1.3577691811       -0.1897555797
 H         -2.7531409945        1.8264295823        0.0849638870
 H         -3.2577718890        0.6239094220        1.2718112053
 H         -4.0906981704        0.7345305466       -0.2796922834
 H         -2.5337316766       -1.2011375455       -0.2703972543
 H         -2.0328758252        0.0017458970       -1.4586946160
 H         -0.8741277905       -0.2875514613        1.3481842074
 H         -0.3681923335        0.9089007479        0.1543798827
 H          0.3133251958       -0.9278979295       -1.3904776680
 H         -0.1535954455       -2.1166923311       -0.1695277176
 H          2.2605379673       -1.7763652403       -0.0517344963
 H          1.5203165417       -1.1119583597        1.4151121144
 H          3.1567530864        2.2865598544       -0.3977155517
