  19
        -21.03989937
 C         -3.1218215523        0.8104663426        0.2085969972
 C         -2.1386900333       -0.1889461441       -0.3881668931
 C         -0.7672735728       -0.1007555342        0.2763075615
 C          0.2221493721       -1.1008129578       -0.3155115933
 C          1.6072460088       -0.9865912898        0.3315113092
 C          2.2218134921        0.2961020299        0.0555182580
 C          2.7161338263        1.3577691811       -0.1897555797
 H         -2.7531409945        1.8264295823        0.0849638870
 H         -3.2577718890        0.6239094220        1.2718112053
 H         -4.0906981704        0.7345305466       -0.2796922834
 H         -2.5337316766       -1.2011375455       -0.2703972543
 H         -2.0328758252        0.0017458970       -1.4586946160
 H         -0.8741277905       -0.2875514613        1.3481842074
 H         -0.3681923335        0.9089007479        0.1543798827
 H          0.3133251958       -0.9278979295       -1.3904776680
 H         -0.1535954455       -2.1166923311       -0.1695277176
 H          2.2605379673       -1.7763652403       -0.0517344963
 H          1.5203165417       -1.1119583597        1.4151121144
 H          3.1567530864        2.2865598544       -0.3977155517
  19
        -21.03977991
 C         -3.6280894604       -0.3031863228        0.1385027177
 C         -2.3156759982        0.3057237064       -0.3397589209
 C         -1.1073149446       -0.3829961991        0.2899330006
 C          0.2094494909        0.2238356611       -0.1865352714
 C          1.4151287839       -0.4743981525        0.4513093819
 C          2.6613445175        0.1077988375       -0.0020047742
 C          3.6769389901        0.6062091026       -0.3915596819
 H         -3.6759699731       -1.3588625080       -0.1203656644
 H         -4.4747159014        0.2012544432       -0.3213092031
 H         -3.7199807199       -0.2120663419        1.2187789386
 H         -2.2517486037        0.2223882948       -1.4272073373
 H         -2.2958352806        1.3688229331       -0.0887232916
 H         -1.1290347633       -1.4466922900        0.0385242336
 H         -1.1730802210       -0.2993014495        1.3779621667
 H          0.2360399835        1.2867718656        0.0650023237
 H          0.2801272809        0.1401109557       -1.2736381662
 H          1.4058612976       -1.5380311423        0.1940183482
 H          1.3590005518       -0.3883441162        1.5408209395
 H          4.5737681913        1.0350095280       -0.7258358767
  19
        -21.03912820
 C         -2.8922847666        0.8708295970       -0.1227911897
 C         -1.7536829893       -0.0866383896       -0.4525001616
 C         -0.8046600655       -0.2553929380        0.7323440359
 C          0.2910253383       -1.2940240216        0.4935116889
 C          1.3092273154       -0.8688729299       -0.5719733590
 C          1.9886238875        0.3571536358       -0.2065050096
 C          2.5393643326        1.3703966836        0.1125017658
 H         -2.4992567821        1.8500710024        0.1418896704
 H         -3.4748858069        0.4982243209        0.7172371157
 H         -3.5564303087        0.9865124020       -0.9764119808
 H         -2.1672521869       -1.0605383628       -0.7272247763
 H         -1.2062711021        0.3008743948       -1.3135544839
 H         -1.3871742028       -0.5609651273        1.6053856368
 H         -0.3390365881        0.7054766843        0.9627494044
 H         -0.1634229917       -2.2394493200        0.1865382413
 H          0.8221151943       -1.4663103134        1.4329127798
 H          0.8111524719       -0.7256706793       -1.5343617870
 H          2.0562183802       -1.6592986247       -0.6947760225
 H          3.0292261922        2.2574238408        0.3832815331
  19
        -21.03903496
 C         -2.6345066730        0.7424088377       -0.6604592465
 C         -2.2463227322       -0.1917690442        0.4797446448
 C         -0.7384388646       -0.2475226269        0.7252618616
 C          0.0324413613       -0.9243475871       -0.4053742130
 C          1.5323607526       -1.0036967656       -0.0981118088
 C          2.1310737642        0.3135736100       -0.0235966158
 C          2.6079978871        1.4099204260        0.0246446237
 H         -2.2522615599        0.3810795991       -1.6114843005
 H         -2.2355551494        1.7392801994       -0.4858846893
 H         -3.7171896958        0.8144574073       -0.7376167685
 H         -2.7340029835        0.1511248246        1.3954835193
 H         -2.6158303524       -1.1980288528        0.2670001261
 H         -0.5549584307       -0.7967847262        1.6530053968
 H         -0.3545415208        0.7661924567        0.8607938553
 H         -0.1065392375       -0.3690710047       -1.3342291751
 H         -0.3522232031       -1.9366538608       -0.5534402257
 H          2.0405699339       -1.5741861242       -0.8815913014
 H          1.6892153530       -1.5187913355        0.8546362180
 H          3.0349711732        2.3667743783        0.0715174888
  19
        -21.03902693
 C         -3.1018354859       -0.4031283953        0.1243901856
 C         -2.0771103928        0.7101639985       -0.0627433350
 C         -0.7123184784        0.2019668664       -0.5271464655
 C          0.0036043693       -0.6483212868        0.5197346897
 C          1.4239924391       -1.0152987280        0.0735862129
 C          2.2707260109        0.1552233608       -0.0360243025
 C          2.9558096255        1.1332324813       -0.1124115829
 H         -4.0743855042        0.0167740513        0.3714772998
 H         -2.8099873074       -1.0728570420        0.9291923026
 H         -3.2029370764       -0.9847794410       -0.7896387142
 H         -2.4556653064        1.4154508974       -0.8065057951
 H         -1.9573576532        1.2551506422        0.8764898166
 H         -0.0789124762        1.0602025903       -0.7652249585
 H         -0.8385264816       -0.3811089676       -1.4432663997
 H         -0.5525262444       -1.5706270829        0.6968804061
 H          0.0552684484       -0.0960087961        1.4610901319
 H          1.3872427630       -1.5183176770       -0.8975876636
 H          1.8723924256       -1.7032878908        0.7968684835
 H          3.5644046313        1.9844768938       -0.1841137006
  19
        -21.03896914
 C         -3.4658888887        0.0270150271       -0.2085862416
 C         -2.0072406237        0.4046190802        0.0204083931
 C         -1.1371094452       -0.8307827357        0.2448644570
 C          0.3114522322       -0.5003785286        0.6029777708
 C          1.0778544217        0.1501507340       -0.5542116179
 C          2.4715918414        0.3437746771       -0.2106924174
 C          3.6185921416        0.4934884282        0.0951674110
 H         -3.5607737240       -0.6168126135       -1.0805886602
 H         -4.0711770062        0.9158700134       -0.3713549890
 H         -3.8631561537       -0.5053359399        0.6531284011
 H         -1.6464823665        0.9621886578       -0.8458925106
 H         -1.9350001886        1.0588234946        0.8926587928
 H         -1.1562340885       -1.4542360460       -0.6528774874
 H         -1.5690856603       -1.4171026646        1.0599958474
 H          0.8265158238       -1.4218212356        0.8860464900
 H          0.3321175088        0.1675658164        1.4673717745
 H          0.6412287982        1.1216036828       -0.7996783823
 H          1.0171711414       -0.4877377955       -1.4414305348
 H          4.6261281044        0.6296616203        0.3526507594
  19
        -21.03892308
 C         -2.9574780877        0.7803030852        0.2148724718
 C         -2.4362534015       -0.5127289112       -0.4014809868
 C         -1.0985594220       -0.9638734205        0.1858818522
 C          0.0577569490       -0.0304307856       -0.1639369961
 C          1.3916430320       -0.5774963193        0.3557135753
 C          2.4869065420        0.3124885238        0.0302653094
 C          3.3735833249        1.0649211187       -0.2511536945
 H         -3.9449950435        1.0131527682       -0.1772348407
 H         -2.2993649401        1.6150516957       -0.0115409507
 H         -3.0329306880        0.6832691186        1.2959886879
 H         -3.1722559060       -1.3033429125       -0.2354801019
 H         -2.3298768031       -0.3829121027       -1.4810302671
 H         -0.8709072429       -1.9637991129       -0.1940515102
 H         -1.1903594943       -1.0370964137        1.2727050580
 H         -0.1105864133        0.9559225024        0.2712420441
 H          0.1171636764        0.0882832563       -1.2485283594
 H          1.5885306157       -1.5590723556       -0.0865054258
 H          1.3435539415       -0.6985538689        1.4423403422
 H          4.1588188253        1.7169826244       -0.4923239177
  19
        -21.03843207
 C         -2.7278467285        0.9591727132        0.1794530932
 C         -1.3130121318        0.5253962454       -0.1848677631
 C         -1.0938243764       -0.9592267971        0.0937119287
 C          0.2814293021       -1.4700330450       -0.3349126709
 C          1.4417383041       -0.8894332970        0.4866375405
 C          1.8360595515        0.4353856669        0.0530262565
 C          2.1933070731        1.5139903561       -0.3227897013
 H         -2.8668742466        2.0185378542       -0.0229026096
 H         -2.9209052590        0.7842207130        1.2359581470
 H         -3.4615779124        0.4003273386       -0.3981973878
 H         -1.1328878426        0.7221572767       -1.2441313669
 H         -0.5946549537        1.1160643670        0.3849014769
 H         -1.8558890286       -1.5328262651       -0.4413589906
 H         -1.2324279683       -1.1494192616        1.1615988055
 H          0.4418001051       -1.2455910958       -1.3918826707
 H          0.2938946988       -2.5570107994       -0.2192358483
 H          2.3140215919       -1.5438770834        0.3901151415
 H          1.1638580499       -0.8534085706        1.5442844602
 H          2.4888009243        2.4673858199       -0.6447261482
  19
        -21.03812543
 C         -2.7484666764       -0.2439478114       -0.5602321359
 C         -1.6792428927        0.7185864209       -0.0556292841
 C         -0.7424598142        0.0969133321        0.9817414517
 C          0.0741920992       -1.0958866856        0.4830459705
 C          1.0372724814       -0.7429651457       -0.6570319400
 C          1.9838299110        0.2811001810       -0.2652784324
 C          2.7582457222        1.1269729335        0.0759847967
 H         -3.3029220844       -0.6680160584        0.2745613984
 H         -2.3094028813       -1.0586869772       -1.1306687007
 H         -3.4503471995        0.2781756588       -1.2069532011
 H         -1.0990374863        1.0979162517       -0.8986656125
 H         -2.1701843047        1.5779058307        0.4077943923
 H         -1.3372147306       -0.2291150288        1.8390846658
 H         -0.0504542465        0.8673372257        1.3302499990
 H         -0.5934732181       -1.8907300623        0.1458204482
 H          0.6554584339       -1.4864367539        1.3222569160
 H          0.4788514458       -0.3946875440       -1.5297889997
 H          1.5932711566       -1.6389591400       -0.9506543753
 H          3.4418227653        1.8677222320        0.3659741588
  19
        -21.03809876
 C         -2.6365558798        0.8686540985       -0.0234782514
 C         -2.1229562597       -0.4404509387        0.5647347272
 C         -1.1568644381       -1.1816610191       -0.3617598259
 C          0.1287428974       -0.4239403245       -0.6944715096
 C          0.9941341588       -0.1462415227        0.5395330950
 C          2.2574860165        0.4536311073        0.1627491845
 C          3.2929330462        0.9503747024       -0.1729879295
 H         -3.0780984457        0.6980100169       -1.0031899457
 H         -1.8342806616        1.5944634010       -0.1294514473
 H         -3.3968198773        1.2998381299        0.6242288954
 H         -1.6424115506       -0.2446293742        1.5251462936
 H         -2.9745944195       -1.0974739083        0.7590361497
 H         -1.6749145380       -1.4050934899       -1.2979996806
 H         -0.8931079861       -2.1360278837        0.1024750099
 H         -0.1083605727        0.5196256740       -1.1884418740
 H          0.7107100449       -1.0224270844       -1.4001664968
 H          1.1902782686       -1.0824149849        1.0715193763
 H          0.4767297309        0.5334740526        1.2214489631
 H          4.2047682002        1.3849441051       -0.4552485587
  19
        -21.03800369
 C         -1.8263379052        1.1236687351       -0.5792977953
 C         -1.4716015583        0.3186572565        0.6648799424
 C         -1.1590124298       -1.1469636350        0.3625624924
 C          0.0799201630       -1.3814082107       -0.5024787352
 C          1.3910581697       -0.9350829607        0.1607084872
 C          1.6331397780        0.4875209331        0.0334745487
 C          1.8538570630        1.6558819389       -0.1027399557
 H         -0.9634782801        1.2244643252       -1.2321912840
 H         -2.1540379820        2.1221749462       -0.2992009743
 H         -2.6301639899        0.6412504538       -1.1321252249
 H         -0.6175981732        0.7823308399        1.1603558425
 H         -2.3157812661        0.3483850973        1.3588172641
 H         -2.0198729363       -1.5912083135       -0.1449265667
 H         -1.0288555593       -1.6782960873        1.3098540235
 H         -0.0313504024       -0.8735704092       -1.4615975365
 H          0.1487245992       -2.4537766648       -0.7042406839
 H          2.2293601872       -1.4584433426       -0.3104360227
 H          1.3794513089       -1.2043883605        1.2212245131
 H          2.0329797935        2.6839550826       -0.2077558051
  19
        -21.03651868
 C         -1.8427857884        1.1717881726        0.5533803385
 C         -1.9550816211       -0.2569993344        0.0308761391
 C         -0.8552975232       -0.6114150067       -0.9812304635
 C          0.2815481612       -1.4519261784       -0.3978704517
 C          1.0735615212       -0.7437295847        0.7074228101
 C          1.6720507525        0.4889700531        0.2379734347
 C          2.1564987876        1.5062614774       -0.1648105781
 H         -2.6051742504        1.3625415001        1.3063038914
 H         -1.9827875909        1.8805922231       -0.2600510850
 H         -0.8668352240        1.3574486806        0.9935921978
 H         -1.9223804851       -0.9576906228        0.8684069591
 H         -2.9330420203       -0.3714846185       -0.4419752951
 H         -0.4378157864        0.3070315061       -1.3979941327
 H         -1.2916640819       -1.1778378672       -1.8071771452
 H          0.9681573323       -1.7153996202       -1.2065378763
 H         -0.1270126475       -2.3808279518        0.0087455239
 H          1.8700773423       -1.4061247898        1.0613074473
 H          0.4200199993       -0.5234436598        1.5553818940
 H          2.5866329133        2.3983595890       -0.5100826483
  19
        -21.03637638
 C         -2.2880651814        0.5299841304       -0.8902494312
 C         -2.1767031285       -0.1023505217        0.4919484776
 C         -0.7410724334       -0.2355460741        1.0039429607
 C          0.1378790043       -1.1870205836        0.1817994766
 C          1.0108116813       -0.4644507464       -0.8527259697
 C          1.9636626801        0.4207348897       -0.2142920023
 C          2.7410313304        1.1484918312        0.3314747713
 H         -3.3327729715        0.7056888735       -1.1391257053
 H         -1.8688158178       -0.1206493890       -1.6536956356
 H         -1.7662347953        1.4845313718       -0.9159589570
 H         -2.7351945276        0.5109538159        1.2036248849
 H         -2.6444351540       -1.0901899643        0.4747906357
 H         -0.7906475590       -0.6003789240        2.0325266419
 H         -0.2706723536        0.7497536762        1.0336009686
 H         -0.4905206053       -1.9185469003       -0.3311270350
 H          0.8005636912       -1.7369395794        0.8540564978
 H          0.3914440349        0.1228469327       -1.5339021794
 H          1.5620540233       -1.2027343845       -1.4438563186
 H          3.4285434595        1.7866820547        0.8006017943
  19
        -21.03619333
 C         -2.3359959869        0.9420518895        0.4244503333
 C         -2.3625188723       -0.3742686771       -0.3430351187
 C         -1.1602597402       -1.2796051987       -0.0669150502
 C          0.1835528013       -0.6947261992       -0.5221500544
 C          0.9705533910       -0.0450881775        0.6228767862
 C          2.2076800209        0.5337518291        0.1403826983
 C          3.2207381013        1.0077603646       -0.2847347805
 H         -1.5114247719        1.5696643306        0.0959813257
 H         -2.2361953612        0.7603918186        1.4928696942
 H         -3.2606360989        1.4910360716        0.2582531517
 H         -3.2703219359       -0.9204279491       -0.0737455415
 H         -2.4125232813       -0.1648263940       -1.4143414642
 H         -1.3314662006       -2.2236602521       -0.5894737466
 H         -1.1185441408       -1.5052532029        1.0013798197
 H          0.0171573725        0.0431420809       -1.3097493686
 H          0.8032895591       -1.4868656362       -0.9486365461
 H          1.2054848575       -0.7991538536        1.3806111697
 H          0.3774688822        0.7392563372        1.0984314262
 H          4.1128893831        1.4256592422       -0.6444992476
  19
        -21.03606348
 C         -2.6323231412        0.8176082592        0.4773878508
 C         -2.1689615420       -0.2455006724       -0.5137863388
 C         -1.1546715779       -1.2331395553        0.0820344983
 C          0.3019221911       -0.9276807018       -0.2695461936
 C          0.8041796587        0.3996462614        0.3074575325
 C          2.2193152213        0.5738337375        0.0508577481
 C          3.3882280049        0.6972457660       -0.1727361736
 H         -1.7998594145        1.4104556388        0.8462893073
 H         -3.1216413231        0.3509690005        1.3301002005
 H         -3.3450127839        1.4897740115        0.0035747697
 H         -3.0488502349       -0.7968431505       -0.8528408247
 H         -1.7350809323        0.2368304944       -1.3923907687
 H         -1.3749996297       -2.2374756262       -0.2870675206
 H         -1.2671512847       -1.2565670512        1.1684084225
 H          0.4182767683       -0.9112517691       -1.3560291261
 H          0.9316619728       -1.7343930699        0.1149169340
 H          0.6360802979        0.4200317328        1.3886484410
 H          0.2644661290        1.2358859269       -0.1439088564
 H          4.4128413057        0.8152455546       -0.3629150290
  19
        -21.03556198
 C         -1.6548623682        1.1879267343       -0.6400712888
 C         -1.5798786099        0.2728634143        0.5771829334
 C         -1.2070870727       -1.1747992711        0.2296377881
 C          0.2741645893       -1.5214620099        0.3907613110
 C          1.2158901212       -0.8040185855       -0.5868653033
 C          1.5590543475        0.5354933093       -0.1551963754
 C          1.8726593743        1.6273177373        0.2214006895
 H         -1.9710948234        2.1846020808       -0.3396853054
 H         -2.3756875976        0.8053392855       -1.3604606001
 H         -0.6867065389        1.2747328355       -1.1240484538
 H         -0.8542963593        0.6748473142        1.2860815347
 H         -2.5564107853        0.2778128126        1.0673838361
 H         -1.5181852882       -1.3917463298       -0.7952342548
 H         -1.7652913202       -1.8490341668        0.8844530919
 H          0.3827987090       -2.5982981053        0.2343088693
 H          0.5885441056       -1.3035126284        1.4141919234
 H          0.7595036311       -0.7623306878       -1.5799802275
 H          2.1474433358       -1.3737267425       -0.6694930791
 H          2.1300021177        2.5917117139        0.5433494177
