! r2scan-3c def2/J RI DEFGRID2 scfconv6 printgap
%output
    printlevel normal
end
%cpcm
    smd true
    smdsolvent "water"
end
* xyz 0 1
C 2.5387736448 -0.1164293526 -0.7606782251
C 1.3249098134 -0.1774693606 0.1627130095
H 1.4118534144 -1.0683898433 0.8059705043
C 0.0281247654 -0.2882157727 -0.6540304922
C -1.2498788293 -0.3436465132 0.1997356658
C -1.8442125535 1.0521054173 0.3932532367
C -2.2893067363 -1.2589823783 -0.4469368231
O 1.3660555647 0.9839797844 0.9792524855
H 2.4711837758 0.7651377909 -1.3924069529
H 3.4464265142 -0.0450513414 -0.167671007
H 2.584371656 -1.0044691085 -1.382901132
H -0.0282885664 0.5598013062 -1.3384651791
H 0.107412465 -1.1972098879 -1.2518297577
H -0.9983374289 -0.7638420388 1.1813805643
H -2.2460182202 1.4161909114 -0.5503129884
H -1.0910353593 1.7583813569 0.7319103276
H -2.6524824391 1.0275750968 1.1208919016
H -1.9148695599 -2.277334246 -0.5204733884
H -3.202687903 -1.2709230147 0.1433392391
H -2.5314622121 -0.9066159271 -1.4471044192
H 0.734237299 0.8845427497 1.7023946853
*
