! r2scan-3c def2/J RI DEFGRID2 scfconv6 printgap
%output
    printlevel normal
end
* xyz 0 1
C 2.2079966824 -1.1551159373 0.5321655544
C 1.5212722439 -0.2499834674 -0.4846051524
C 0.3000303208 0.5018755975 0.0806655161
H 0.3871360873 0.567520516 1.1711508275
C -1.051360674 -0.1496972395 -0.2772646483
C -1.137127274 -1.6080652046 0.1633420136
C -2.1916323826 0.6477946874 0.3568644923
O 0.3163786025 1.8575463985 -0.3450559512
H 1.5368936704 -1.9286423438 0.8924208399
H 2.5479870269 -0.571792497 1.3847355846
H 3.0724743745 -1.6337207042 0.0780916531
H 2.2425923549 0.5037096355 -0.8101435879
H 1.2263513409 -0.8292014788 -1.3619814589
H -1.1597399122 -0.1061032338 -1.3685741516
H -0.9590354175 -1.6902671891 1.2330435484
H -2.1319854376 -1.9934689442 -0.0475757837
H -0.4166691841 -2.2270206457 -0.3628347567
H -2.0904070964 1.7059029498 0.1285245596
H -2.1720187908 0.5306358689 1.4382493687
H -3.152429155 0.2987633633 -0.0127815595
H 0.2273422714 1.8779172923 -1.3080617331
*
