  16
        -19.50042494
 C          0.7332325353       -1.1978407765        0.2311543555
 C         -0.7332177827       -1.1978341187       -0.2310512992
 N         -1.4437773606        0.0000228534        0.1919912959
 C         -0.7331517156        1.1978608476       -0.2311217717
 C          0.7332452249        1.1977905741        0.2312320227
 N          1.4437287125        0.0000053058       -0.1922023383
 H          1.2602142564       -2.0711377162       -0.1585253397
 H          0.7724405100       -1.2298862392        1.3257399499
 H         -0.7723958146       -1.2301095726       -1.3256576903
 H         -1.2602114357       -2.0710652323        0.1587497239
 H         -1.5201825162        0.0000783656        1.2062195845
 H         -0.7722772014        1.2300240215       -1.3257409469
 H         -1.2601845806        2.0711389588        0.1585333305
 H          1.2602682005        2.0711331030       -0.1582713424
 H          0.7723323572        1.2297051766        1.3258340661
 H          1.5193821407        0.0000075395       -1.2064904490
