! pbe def2-sv(p) def2/J RI DEFGRID1 loosescf d4 GCP(DFT/SV(P)) printgap
%output
    printlevel normal
end
* xyz 0 1
C -1.0272372551 -0.4538158718 -0.3347967805
C 0.1313899665 0.3488203249 0.2708489306
C 1.4723375487 -0.0916451347 -0.334349414
O 1.8111153654 -1.4144164542 -0.0023730214
O -0.0184137596 1.7309319732 0.0280929514
O -2.2660892234 -0.1080456884 0.2438407776
H -0.8168529878 -1.5238878911 -0.2371940701
H -1.113310514 -0.2077789735 -1.3959663045
H 0.1562652525 0.1754243547 1.361590158
H 2.2447774271 0.617565784 -0.0161583717
H 1.401304358 -0.0552494404 -1.4236072932
H 2.0464343404 -1.4621532306 0.9351170011
H -0.961121056 1.9480117508 0.0990286741
H -2.3127685316 -0.4578561346 1.1445116589
*
