  20
        -19.99506694
 C          2.8154797146       -0.2163775192       -0.1537200410
 C          1.4832637900        0.3606247333        0.3104892012
 C          0.3065978673       -0.4694640387       -0.1983989093
 C         -1.0549495793       -0.0107141719        0.3350023897
 C         -2.1289655213       -1.0324557809       -0.0359743227
 C         -1.4416709445        1.3644455389       -0.2043137251
 H          3.6434201296        0.3869210846        0.2119219420
 H          2.9421943434       -1.2321369635        0.2151506974
 H          2.8621134906       -0.2399850875       -1.2404722261
 H          1.4605861618        0.3861340744        1.4026556504
 H          1.3974657865        1.3873660765       -0.0485447839
 H          0.2908239500       -0.4412658530       -1.2907151592
 H          0.4639101534       -1.5091318737        0.1006975929
 H         -0.9958599307        0.0480195170        1.4281435713
 H         -2.2076149121       -1.1218839325       -1.1175969919
 H         -3.0980261384       -0.7286673817        0.3537353478
 H         -1.8880990224       -2.0116325588        0.3721191496
 H         -2.4301389154        1.6454675728        0.1528713247
 H         -0.7375079270        2.1259584594        0.1196764780
 H         -1.4620142973        1.3518040400       -1.2922440850
  20
        -19.99414696
 C          2.2893471838        0.0213485983        0.7246893028
 C          1.5810402637        0.2024169760       -0.6128284034
 C          0.2478881639       -0.5427785773       -0.6981638564
 C         -0.8259899566       -0.0901636062        0.2979700672
 C         -2.0554217449       -0.9878209561        0.1622152456
 C         -1.2237895158        1.3681112425        0.0835953622
 H          3.2764370403        0.4777391031        0.6935056368
 H          1.7286157515        0.4864540163        1.5313216226
 H          2.4079003540       -1.0359817352        0.9524739931
 H          1.4263171748        1.2657713148       -0.8019636842
 H          2.2294022115       -0.1763078671       -1.4072995078
 H         -0.1496206710       -0.4280239693       -1.7102324097
 H          0.4380073385       -1.6076953086       -0.5398345485
 H         -0.4360295098       -0.2012543023        1.3146662545
 H         -1.7935008623       -2.0295462611        0.3345841958
 H         -2.4789537500       -0.9020898664       -0.8365855986
 H         -2.8189679533       -0.7037095395        0.8830858350
 H         -0.3906777067        2.0371495876        0.2815745349
 H         -1.5564233810        1.5232052040       -0.9409430085
 H         -2.0383117198        1.6385237971        0.7523786312
  20
        -19.99412875
 C          2.3084113084       -0.0398384829        0.7192286795
 C          1.5839073092        0.2364516678       -0.5931962952
 C          0.2489611423       -0.5007273401       -0.7131747451
 C         -0.8280939126       -0.0798408410        0.2934603657
 C         -2.0359792487       -1.0072879140        0.1650010551
 C         -1.2642661065        1.3684951508        0.0859226729
 H          2.4338723261       -1.1106361388        0.8662184141
 H          3.2932414916        0.4223060586        0.7111356641
 H          1.7553963557        0.3608561066        1.5648099184
 H          1.4285264424        1.3106370098       -0.7042945455
 H          2.2224677836       -0.0854399573       -1.4199652898
 H         -0.1439999664       -0.3486731130       -1.7220507354
 H          0.4362540100       -1.5710372075       -0.5926615595
 H         -0.4274855618       -0.1833194999        1.3067381124
 H         -1.7485004846       -2.0417352072        0.3403935282
 H         -2.4646157165       -0.9354390922       -0.8326966658
 H         -2.8037757111       -0.7389957267        0.8874128630
 H         -1.6197118215        1.5144259254       -0.9322976846
 H         -2.0721926525        1.6206810498        0.7696171223
 H         -0.4436864863        2.0574515843        0.2671850051
  20
        -19.99394066
 C          2.7122096424       -0.2243687877       -0.0930739263
 C          1.2495811776       -0.0410722991       -0.4817462872
 C          0.3400801331       -0.1318664478        0.7420616319
 C         -1.1604081434        0.0370911098        0.4632238655
 C         -1.7020272122       -1.0600607190       -0.4509696789
 C         -1.4869914989        1.4148614323       -0.1094180254
 H          2.8654646235       -1.1960315965        0.3721143446
 H          3.3531653918       -0.1593293206       -0.9695621174
 H          3.0193526818        0.5437688786        0.6137735781
 H          1.1292894264        0.9315092738       -0.9611040998
 H          0.9756767881       -0.8109360959       -1.2045453006
 H          0.4945618185       -1.1036571594        1.2187755421
 H          0.6455179883        0.6342611923        1.4598658821
 H         -1.6697706062       -0.0522577815        1.4311173721
 H         -1.4398643787       -2.0437898261       -0.0677600121
 H         -1.3002122996       -0.9607958963       -1.4561798529
 H         -2.7862062064       -0.9951661700       -0.5139616248
 H         -1.0707754445        2.2002079138        0.5177190864
 H         -1.0847379432        1.5228057247       -1.1135610999
 H         -2.5647449708        1.5539491213       -0.1617961805
  20
        -19.99218343
 C          2.1127094700       -0.9589492243        0.4389294662
 C          1.7231705930        0.4130507441       -0.0973314244
 C          0.3347504902        0.4550543685       -0.7385984508
 C         -0.8240963461        0.2064065223        0.2443630177
 C         -1.3518549404       -1.2238132535        0.1419153979
 C         -1.9676994652        1.1884664288       -0.0091613750
 H          3.1367482865       -0.9422876158        0.8065469390
 H          1.4648102502       -1.2549542758        1.2598263881
 H          2.0442912533       -1.7086998898       -0.3466243031
 H          1.7640990895        1.1425744979        0.7153155282
 H          2.4573194030        0.7177360289       -0.8478033017
 H          0.2106731392        1.4414775075       -1.1912809042
 H          0.2915246500       -0.2785222847       -1.5463314497
 H         -0.4590796001        0.3705936392        1.2641786525
 H         -2.1274596323       -1.3975697190        0.8853954014
 H         -0.5585495824       -1.9487707062        0.3001829831
 H         -1.7811701867       -1.3955080912       -0.8435058415
 H         -2.7876823952        1.0072622452        0.6827771579
 H         -1.6315921669        2.2148239870        0.1218302974
 H         -2.3454469400        1.0759270238       -1.0235602921
  20
        -19.99211595
 C          2.3744812564        0.5032518611       -0.4802046752
 C          1.5592333467       -0.1661609149        0.6213877266
 C          0.2761231583       -0.8342986970        0.1053006045
 C         -1.0040056881       -0.0229622765        0.3392719187
 C         -2.2200640667       -0.8479731835       -0.0801863264
 C         -0.9956444717        1.3045321129       -0.4136170539
 H          3.2629650495        0.9722216022       -0.0618137768
 H          2.6933043728       -0.2336852426       -1.2146626515
 H          1.7947602089        1.2656476102       -0.9927224179
 H          2.1897974626       -0.9194039188        1.0991640376
 H          1.3046215631        0.5704113086        1.3863113063
 H          0.3778058850       -1.0366852620       -0.9630743175
 H          0.1509508780       -1.7973023007        0.6058266962
 H         -1.0847506978        0.1877861198        1.4123780965
 H         -2.1733195574       -1.0768685882       -1.1430031255
 H         -3.1397635131       -0.2996472087        0.1115139870
 H         -2.2598707293       -1.7852727607        0.4705630037
 H         -1.9406127443        1.8246047567       -0.2687660758
 H         -0.1986478553        1.9514199662       -0.0576512061
 H         -0.8595439016        1.1348182637       -1.4798446907
  20
        -19.99192097
 C          2.3009563362        0.5806287405        0.3605591613
 C          1.6054224746       -0.7246409759       -0.0071040399
 C          0.2616244956       -0.5008578076       -0.7023007923
 C         -0.8286335509        0.0603935279        0.2324797618
 C         -2.0025102642       -0.9104911021        0.3492784003
 C         -1.3234830559        1.4233323718       -0.2477747743
 H          2.4895134709        1.1734907465       -0.5320811884
 H          1.6902545139        1.1702018119        1.0398382730
 H          3.2537830401        0.3807521911        0.8461682730
 H          2.2569599637       -1.2948347324       -0.6739047551
 H          1.4511464641       -1.3238453252        0.8932953992
 H          0.4140376415        0.1797666579       -1.5422254069
 H         -0.0752683062       -1.4528698104       -1.1173579715
 H         -0.4027540517        0.1879107892        1.2332647943
 H         -2.7504251373       -0.5259940087        1.0398718328
 H         -1.6646990400       -1.8774937924        0.7157880425
 H         -2.4750771386       -1.0542458669       -0.6205224859
 H         -2.0683536732        1.8235760216        0.4372961761
 H         -0.5002603990        2.1314691558       -0.3096374583
 H         -1.7782624129        1.3357831251       -1.2326818259
  20
        -19.99167156
 C          2.5579126092        0.3248453246       -0.4377556060
 C          1.5237547350       -0.0552504648        0.6159920293
 C          0.2833758998       -0.7313827649        0.0072111769
 C         -1.0331254356       -0.0176436551        0.3364645089
 C         -2.2206454174       -0.8978758918       -0.0486239650
 C         -1.1270726223        1.3244658574       -0.3854060197
 H          2.1304864369        1.0164510711       -1.1605810358
 H          3.4191646978        0.8020480917        0.0255675718
 H          2.9028530299       -0.5590721727       -0.9701965112
 H          1.9902872644       -0.7239908709        1.3419357186
 H          1.2256761616        0.8436668137        1.1586706988
 H          0.3880206160       -0.7752887409       -1.0788725905
 H          0.2176493947       -1.7607434873        0.3649398907
 H         -1.0711546532        0.1598748004        1.4176037925
 H         -3.1585552837       -0.3963892437        0.1796889450
 H         -2.1953809591       -1.8398398079        0.4949005286
 H         -2.1996195236       -1.1163485437       -1.1144278872
 H         -2.0477135116        1.8381410853       -0.1165731613
 H         -0.2909541366        1.9691182419       -0.1269160857
 H         -1.1224704412        1.1720784805       -1.4630185681
  20
        -19.99126635
 C          2.2018161210       -1.0744137336       -0.0030987832
 C          1.6828932928        0.3235228108        0.3154848229
 C          0.3778174254        0.7045417633       -0.3931951060
 C         -0.9188208200        0.2438630305        0.2889287937
 C         -1.2467242350       -1.2221085237        0.0158290209
 C         -2.0824507135        1.1146853894       -0.1881149963
 H          1.5599748469       -1.8459846027        0.4106030569
 H          2.2650521610       -1.2204673862       -1.0791551882
 H          3.1967657192       -1.2062639521        0.4177785807
 H          1.5519914724        0.4267806622        1.3950471693
 H          2.4506931998        1.0405114212        0.0125659790
 H          0.3452731147        1.7956412563       -0.4498916214
 H          0.3992508107        0.3285560435       -1.4183331090
 H         -0.8099979880        0.3820207546        1.3708546244
 H         -2.2166595765       -1.4743584490        0.4402686804
 H         -0.5081362847       -1.8844150134        0.4556791641
 H         -1.2844148595       -1.4087339697       -1.0554153239
 H         -1.9079737753        2.1613049837        0.0516395660
 H         -2.2035561806        1.0247131889       -1.2657513566
 H         -3.0114273493        0.8070966515        0.2870840859
  20
        -19.99091674
 C          2.2030370419       -0.8056131775       -0.4400220710
 C          1.4153265556        0.4466292312       -0.0686891903
 C          0.3165925023        0.1825773852        0.9710376352
 C         -1.1075143209        0.0142383339        0.4184069474
 C         -1.2135412034       -1.1141872478       -0.6038259807
 C         -1.6437366280        1.3181756689       -0.1701303359
 H          1.5553786470       -1.5679638415       -0.8632431903
 H          2.9716961459       -0.5650974146       -1.1721226929
 H          2.6904865918       -1.2213806748        0.4397043535
 H          2.1158632411        1.1817867402        0.3338554983
 H          0.9822151782        0.8799432032       -0.9705202775
 H          0.5778557160       -0.7153378449        1.5358311928
 H          0.2914382988        1.0117696593        1.6822383867
 H         -1.7435112530       -0.2478765587        1.2734768912
 H         -0.8346672604       -2.0452105346       -0.1881221817
 H         -0.6511476329       -0.8767199398       -1.5031142422
 H         -2.2532585001       -1.2662868946       -0.8871446668
 H         -2.6828985039        1.1970113560       -0.4684732529
 H         -1.5889552661        2.1203647866        0.5625474667
 H         -1.0749434381        1.6166326945       -1.0473595622
  20
        -19.99009866
 C          1.9413259396       -0.4670258947       -0.8000525379
 C          1.5090069867        0.3747661187        0.3948519310
 C          0.2436367994       -0.1080331481        1.1100433468
 C         -1.1009270267        0.0051851332        0.3685560953
 C         -1.3484528521       -1.1398455734       -0.6124857958
 C         -1.2717752347        1.3530552918       -0.3277261796
 H          1.9360899859       -1.5245968370       -0.5458232909
 H          1.2876538850       -0.3125166753       -1.6536580757
 H          2.9507569494       -0.1931844657       -1.1017011967
 H          2.3160433844        0.3568997785        1.1329797381
 H          1.3844774041        1.4126459450        0.0830936447
 H          0.3857180870       -1.1503241764        1.4066820619
 H          0.1585760422        0.4789213673        2.0293088011
 H         -1.8765209163       -0.0687075681        1.1421911954
 H         -1.2031752420       -2.1009207454       -0.1240763391
 H         -0.6823963112       -1.0848916371       -1.4674037182
 H         -2.3720784484       -1.0971990465       -0.9802757110
 H         -1.0765583827        2.1699503389        0.3637110623
 H         -0.5950542718        1.4426102686       -1.1736487503
 H         -2.2895677905        1.4555953745       -0.6985481618
  20
        -19.99005351
 C          2.0129607041       -0.5974650951       -0.7183523748
 C          1.4965657204        0.4257082346        0.2868658510
 C          0.2636187247       -0.0130058965        1.0831638505
 C         -1.1046376292        0.0029454635        0.3795331272
 C         -1.2976882024       -1.1372994470       -0.6184645162
 C         -1.3981528188        1.3451416878       -0.2869250497
 H          1.3473346691       -0.6955909174       -1.5700352319
 H          2.9888479523       -0.2915742423       -1.0910029020
 H          2.1177231649       -1.5736590573       -0.2498581392
 H          2.2938510244        0.6160655893        1.0110693189
 H          1.2953079048        1.3693561231       -0.2212109957
 H          0.4393110449       -1.0193134729        1.4721564476
 H          0.1840585151        0.6552380779        1.9457545532
 H         -1.8456496970       -0.1408098355        1.1769414206
 H         -0.9900451244       -2.0862405433       -0.1854399833
 H         -0.7265399803       -0.9690586383       -1.5264714492
 H         -2.3476829108       -1.2131534283       -0.8953520995
 H         -0.7618455591        1.4951157193       -1.1556091525
 H         -2.4333011388        1.3788630939       -0.6200098123
 H         -1.2356404452        2.1646259624        0.4096785175
  20
        -19.99005276
 C          2.0617695866        0.3323725000       -0.6887169137
 C          1.4157522040       -0.6760073021        0.2544893943
 C          0.2498436562       -0.1333438156        1.0866590843
 C         -1.0946712511        0.1219430206        0.3828834874
 C         -1.5507366471       -1.0744519779       -0.4491490833
 C         -1.1138690153        1.3947810546       -0.4617616683
 H          2.2769325327        1.2615715682       -0.1656470003
 H          2.9981073580       -0.0669303506       -1.0742638199
 H          1.4217398881        0.5553470099       -1.5367955239
 H          1.0934794680       -1.5512828231       -0.3106341400
 H          2.1798513249       -1.0143750339        0.9602590032
 H          0.0603667247       -0.8606489944        1.8817084566
 H          0.5674687225        0.7944034279        1.5695612692
 H         -1.8261752405        0.2638505373        1.1893352054
 H         -1.5085385107       -1.9895565828        0.1376208986
 H         -0.9251840638       -1.1959029182       -1.3300455112
 H         -2.5759843694       -0.9288916382       -0.7829927230
 H         -0.5380404483        1.2745735402       -1.3741307678
 H         -2.1371968404        1.6368831706       -0.7429379698
 H         -0.7065421652        2.2345517229        0.0964543818
