  14
        -16.96858357
 C         -3.8540251235       -0.6962338421       -0.1508750678
 C         -2.4980619975       -0.2988896559        0.4176349151
 C         -1.8896340128        0.8740462075       -0.3459378908
 C         -0.5629085593        1.3346357533        0.2210747307
 I          1.0096242154       -0.1348027405       -0.0155043613
 H         -4.5547747196        0.1340708809       -0.0897021259
 H         -3.7595145440       -0.9885446461       -1.1944220504
 H         -4.2671150284       -1.5352423936        0.4033480162
 H         -1.8227770055       -1.1558737008        0.3652205563
 H         -2.6096497354       -0.0263034211        1.4703884195
 H         -1.7724384209        0.6037232590       -1.3982085374
 H         -2.5758494282        1.7262753593       -0.2993266384
 H         -0.6323064576        1.5260197531        1.2892366003
 H         -0.2036587957        2.2270602347       -0.2853455186
  14
        -16.96836503
 C         -4.3146082975       -0.9391101447       -0.0583739573
 C         -3.2616243677        0.0362453578        0.4528247032
 C         -1.8589271497       -0.3679331406       -0.0020583466
 C         -0.8268945420        0.6113936246        0.5165559354
 I          1.1760856918        0.0779873313       -0.1025631845
 H         -5.3049272618       -0.6377812790        0.2738845920
 H         -4.3113643913       -0.9693707247       -1.1456562572
 H         -4.1181680917       -1.9424234508        0.3127479567
 H         -3.2937572396        0.0678868159        1.5446305933
 H         -3.4867957563        1.0404539997        0.0855398339
 H         -1.6352943537       -1.3725395993        0.3648477880
 H         -1.8273146490       -0.3974180085       -1.0938650967
 H         -0.8095470956        0.6349645056        1.6034999188
 H         -1.0021275100        1.6148841530        0.1362748333
  14
        -16.96783901
 C         -3.2115509313       -0.6614319397       -0.5966632512
 C         -2.5207323931       -0.1372634726        0.6567812680
 C         -1.8003333684        1.1931755410        0.4414456158
 C         -0.6749470464        1.1474230960       -0.5721912062
 I          0.9389130031       -0.1707751952        0.0147483319
 H         -2.4892912271       -0.9455390061       -1.3582474756
 H         -3.8014086751       -1.5424135842       -0.3556661952
 H         -3.8771425537        0.0925736713       -1.0131404147
 H         -1.8076405509       -0.8827388252        1.0156963055
 H         -3.2667322464        0.0055466531        1.4417940600
 H         -2.5215149528        1.9363334449        0.0849739430
 H         -1.4107633626        1.5451587469        1.4000898027
 H         -0.2200810416        2.1278476442       -0.6909236964
 H         -1.0154235310        0.7908640772       -1.5398773512
  14
        -16.96761802
 C         -3.8129478137       -1.2066809603        0.2741141584
 C         -3.3381653012        0.2320309793        0.1046634375
 C         -1.8994777333        0.3388290315       -0.4083667707
 C         -0.8985508016       -0.1482809745        0.6193380451
 I          1.1378370855        0.0969006887       -0.0700218665
 H         -3.6870905633       -1.7614074458       -0.6533118417
 H         -3.2608816195       -1.7164288186        1.0599409825
 H         -4.8670153939       -1.2235520746        0.5407750969
 H         -3.4235855239        0.7598794037        1.0575468323
 H         -3.9904712294        0.7366799242       -0.6111851761
 H         -1.7988495609       -0.2430254767       -1.3276257547
 H         -1.6893602715        1.3833771438       -0.6510585545
 H         -1.0119056843       -1.2082460742        0.8274000068
 H         -0.9731975945        0.4160062398        1.5460056403
  14
        -16.96533960
 C         -2.6503176286       -0.9626929211        0.1606568217
 C         -2.9013106991        0.5385184199        0.2307074162
 C         -1.7524527432        1.3938755565       -0.3071715604
 C         -0.4755899954        1.3270131801        0.5152800001
 I          0.8864057796       -0.2534352246       -0.0699529508
 H         -1.8703741186       -1.2683267467        0.8525568315
 H         -3.5572191296       -1.5032233375        0.4224989270
 H         -2.3559107512       -1.2567287105       -0.8444710500
 H         -3.1059204498        0.8253155713        1.2658047579
 H         -3.7927346329        0.7749741636       -0.3554721896
 H         -1.5506463323        1.1246379846       -1.3460212285
 H         -2.0823360662        2.4379863527       -0.3026216099
 H         -0.6890379501        1.1674359837        1.5693397575
 H          0.1062202271        2.2382956195        0.4023186488
  14
        -16.96497930
 C         -2.9662422942       -0.8888307810       -0.2202322152
 C         -2.5372278783        0.2969824349        0.6363734641
 C         -1.7664571495        1.3562555159       -0.1696217717
 C         -0.3248677807        1.5245578061        0.2654829549
 I          0.8672807142       -0.2532950666       -0.0562934778
 H         -3.6284142134       -0.5628329304       -1.0199403378
 H         -2.1025240747       -1.3780338425       -0.6640925258
 H         -3.4961534781       -1.6200003483        0.3857815118
 H         -1.9136593427       -0.0660059911        1.4563405495
 H         -3.4244455238        0.7487129417        1.0841781724
 H         -1.7998250320        1.1053418505       -1.2320023335
 H         -2.2432758139        2.3342824141       -0.0540789273
 H         -0.2532495767        1.7409518618        1.3287830770
 H          0.1684808661        2.3126504731       -0.2985276316
  14
        -16.96462130
 C         -2.7943239733       -0.9507861225       -0.0788895411
 C         -2.7409630245        0.4527336929        0.5144866276
 C         -1.7704240652        1.3995761258       -0.2040648550
 C         -0.3705932852        1.4527884797        0.3786633857
 I          0.8756493117       -0.2605986185       -0.0688460836
 H         -3.0599956967       -0.9074668314       -1.1332347864
 H         -1.8425492417       -1.4641591785        0.0150201546
 H         -3.5470760084       -1.5423830685        0.4376423488
 H         -2.4736405274        0.3926732478        1.5722646810
 H         -3.7435144339        0.8836395863        0.4591122704
 H         -1.7283278122        1.1478650098       -1.2658861119
 H         -2.1606768852        2.4200858786       -0.1286064077
 H         -0.3974648751        1.5239755843        1.4633822158
 H          0.1778247573        2.3016918205       -0.0229106947
