  20
        -27.11664657
 C         -2.1423240058       -1.5086395502       -0.0147876423
 C         -2.4231155964       -0.0178023390        0.1255144328
 C         -1.3727120278        0.8237735744       -0.6039178287
 C         -0.0236827012        0.6863588822        0.0650996165
 O          0.1894028719        0.8762597883        1.2335456136
 O          0.9162472003        0.3349906560       -0.8193366198
 C          2.2447927044        0.1554109920       -0.3257518682
 C          2.4296642791       -1.2284004844        0.2805595873
 H         -2.9086229386       -2.0894600006        0.4930135120
 H         -2.1277671897       -1.7992424911       -1.0633433235
 H         -1.1784962333       -1.7565870031        0.4239035070
 H         -2.4177832156        0.2584721165        1.1812618120
 H         -3.4092040538        0.2105673799       -0.2833641220
 H         -1.6554001456        1.8777667610       -0.5599835049
 H         -1.2832816285        0.5219420210       -1.6473625000
 H          2.8919572562        0.2955551344       -1.1939941049
 H          2.4511072898        0.9267992442        0.4235816908
 H          1.7940827178       -1.3368790303        1.1560663430
 H          2.1685123327       -1.9950791875       -0.4452299811
 H          3.4653031501       -1.3602196345        0.5803531180
