! r2scan-3c def2/J RI DEFGRID2 scfconv6 printgap
%output
    printlevel normal
end
%cpcm
    smd true
    smdsolvent "water"
end
* xyz 0 1
C -0.4866047529 1.2271883121 -1.9571491371
N -0.1565856213 0.2619874657 -0.9292777394
C -1.1532849923 -0.7253043623 -0.6405323439
C -2.1311463728 -0.2850566567 0.4556576695
F -1.5404548587 0.026994606 1.6188019028
F -2.8607377095 0.7906646684 0.1092029202
F -3.0225573958 -1.2587835746 0.7383180756
C 1.1437237555 0.1279475491 -0.4731446399
C 2.2039534355 0.7613353306 -1.1309012586
C 3.4993894787 0.6397205284 -0.6669944068
C 3.7828772647 -0.11809519 0.4559989458
C 2.7423022719 -0.7490353099 1.1156547343
C 1.4417488152 -0.628167982 0.6659580679
H -1.5599064797 1.4022582511 -1.9508622231
H -0.189049411 0.8806004929 -2.9521942837
H 0.0060987356 2.1734295414 -1.7430154985
H -1.7634590622 -0.9283446587 -1.5276906234
H -0.7006684131 -1.6623838678 -0.3061159064
H 2.0258309357 1.343532542 -2.0189800603
H 4.297832249 1.1384580655 -1.1964501739
H 4.7963088549 -0.2128532825 0.8139513468
H 2.9404269108 -1.3377208499 1.9993526573
H 0.6591759672 -1.1083825413 1.2317259267
*
