! r2scan-3c def2/J RI DEFGRID2 scfconv6 printgap
%output
    printlevel normal
end
%cpcm
    smd true
    smdsolvent "water"
end
* xyz 0 1
C -3.5607262841 1.3039434566 -0.0230496698
C -2.9295110291 0.080309707 0.6342463155
C -2.0229530535 -0.7129773546 -0.3201894572
C -0.5500659367 -0.4277497486 -0.1835371293
C 0.3669376957 -1.4573348295 -0.3577736886
C 1.7286545241 -1.2382868497 -0.2593341547
C 2.2078803954 0.0341536928 0.0234102399
C 1.3021247389 1.0741146866 0.2011748984
C -0.055047039 0.8409765857 0.0953433132
O 3.5387363459 0.3094405382 0.1366031987
H -2.8039092577 1.9752707611 -0.4203902233
H -4.2062040341 0.9996269777 -0.8442414829
H -4.1618568936 1.8531386175 0.69817426
H -3.7332231936 -0.5709333468 0.9834617964
H -2.355251051 0.3849280795 1.511226831
H -2.3239927993 -0.502412478 -1.3507947843
H -2.1729876994 -1.782149672 -0.1580169582
H 0.0122311137 -2.4545806784 -0.5754409498
H 2.4179773636 -2.0589066992 -0.3991093831
H 1.6822032097 2.0597606224 0.4208238294
H -0.7310360619 1.6685200519 0.2379220599
H 4.062579051 -0.4919206784 -0.0113145916
*
