! pbe def2-sv(p) def2/J RI DEFGRID1 loosescf d4 GCP(DFT/SV(P)) printgap
%output
    printlevel normal
end
* xyz 0 1
C 2.7644493786 0.326261399 -1.4479388386
C 2.2127281754 0.9914244929 -0.188443362
C 1.3282113608 0.1052158543 0.7064893434
H 1.3735132156 0.5341382926 1.7157775119
C 1.8554100002 -1.3319605223 0.7990944193
C -0.1362885273 0.0721572124 0.3266129775
C -1.0557603725 -0.3055357521 1.3024894004
C -2.407213045 -0.3839188782 1.0252971194
C -2.8727915892 -0.0806401743 -0.2433861703
C -1.9730612469 0.3046119772 -1.2200982959
C -0.6185721478 0.3805946677 -0.9379106163
H 1.9814660087 -0.1430717395 -2.0366079843
H 3.2563792288 1.07364172 -2.067091831
H 3.4978681424 -0.4338028282 -1.1932728442
H 3.0641719137 1.3280273861 0.4082052127
H 1.6427589587 1.8819175357 -0.4628045241
H 1.2914440854 -1.8905475174 1.5422403118
H 1.7525397822 -1.841504011 -0.1550258692
H 2.9031056787 -1.3313168271 1.0898322706
H -0.7045808005 -0.5356999231 2.2988352763
H -3.0997365045 -0.6777920736 1.8005587152
H -3.927876355 -0.139596714 -0.4655446839
H -2.3250365674 0.549606108 -2.2117173627
H 0.053570407 0.6939799226 -1.7196953279
*
