! r2scan-3c def2/J RI DEFGRID2 scfconv6 printgap
%output
    printlevel normal
end
%cpcm
    smd true
    smdsolvent "water"
end
* xyz 0 1
C -2.6604306854 -0.1325304394 -0.7347809768
C -1.7291087218 0.683709909 0.1588346702
C -0.412629533 -0.0236352773 0.3595769789
O -0.2920646812 -1.1956160404 0.6486848727
O 0.6137385372 0.8032259451 0.1978184063
C 1.9450824795 0.2830670781 0.3551819407
C 2.4449513932 -0.3437218469 -0.9374268894
H -2.7588229725 -1.1411500864 -0.3408076502
H -3.6413061616 0.3308484807 -0.7734855466
H -2.261999096 -0.1951603156 -1.7441941925
H -2.1829388152 0.8004309607 1.1452540139
H -1.5341937956 1.6702102077 -0.2589787762
H 2.545654349 1.1485217312 0.6363497465
H 1.9380601223 -0.4548405601 1.1632118459
H 3.4739122397 -0.66303599 -0.8085740477
H 1.8357758278 -1.2085953657 -1.190836551
H 2.390963575 0.3777151028 -1.748356034
*
