  34
        -38.84874400
 C         -6.7567741340       -0.2501952100        0.0367372371
 C         -5.4625564449        0.5454532977       -0.0802576409
 C         -4.2318465747       -0.3490293763        0.0469706405
 C         -2.9308111968        0.4413575228       -0.0673601896
 C         -1.7013619419       -0.4552904709        0.0559814506
 C         -0.4002488620        0.3351985874       -0.0589943668
 C          0.8293180463       -0.5612690119        0.0637162940
 C          2.1263854808        0.2336956096       -0.0518508776
 C          3.3574968139       -0.6599784888        0.0681895750
 C          4.6528461242        0.1224808249        0.0230024378
 O          4.7012848165        1.3225194670        0.1024501431
 C          5.8875674186       -0.7332084499       -0.1357217610
 H         -7.6199106200        0.4048246501       -0.0567387987
 H         -6.8124216470       -1.0049359345       -0.7448967265
 H         -6.8098377307       -0.7525194319        1.0003312404
 H         -5.4345574468        1.3097275396        0.6998432107
 H         -5.4373508874        1.0576446202       -1.0449039888
 H         -4.2585045473       -0.8628573272        1.0109852524
 H         -4.2599852153       -1.1127380609       -0.7340968084
 H         -2.9053863633        0.9575610593       -1.0299972207
 H         -2.9012393087        1.2033122086        0.7150947434
 H         -1.7313103317       -1.2176065620       -0.7264594771
 H         -1.7266461626       -0.9711495716        1.0189669237
 H         -0.3751623594        0.8512749708       -1.0214346113
 H         -0.3697086591        1.0968724879        0.7232899953
 H          0.7986749061       -1.3235055223       -0.7192614688
 H          0.8035899144       -1.0770598828        1.0270161377
 H          2.1654104253        0.9946668710        0.7293196867
 H          2.1556306319        0.7526147622       -1.0119893527
 H          3.3346996152       -1.1957212397        1.0218936971
 H          3.3686432781       -1.4120664477       -0.7238209677
 H          5.8356745442       -1.6111859617        0.5022010559
 H          6.7777044642       -0.1544621804        0.0951823019
 H          5.9486913779       -1.0675827421       -1.1700515131
