! wb97x-v def2-tzvp def2/J RIJCOSX DEFGRID2 scfconv7 GCP(DFT/TZ) printgap
%output
    printlevel normal
end
* xyz 0 1
C 2.3217024366006314 -0.8502894341642515 -0.5429563530544667
C 1.251756343461019 -0.11870739209422869 0.24573825272527472
C 1.5543103904901736 1.3692035669176983 0.3652700038308086
O 0.004667620677945081 -0.35382789484486676 -0.44225560034074407
C -1.182421707757633 0.005400737027571861 0.3084272970171184
C -1.8993357740599794 1.1433281822655557 -0.40054317424805674
C -2.055573938257741 -1.2328047177358978 0.4317381028369749
H 3.295114770775439 -0.7269694365762938 -0.059254604484521044
H 2.099177795779596 -1.9197470357908852 -0.6054698023257835
H 2.3899153752628886 -0.44603159097960515 -1.5588651342842856
H 1.1786703648175638 -0.5579854937157619 1.2536220507058167
H 1.634983110007059 1.8206509871037078 -0.6298351308963799
H 2.5043925405628493 1.5149876803077724 0.8898423205083356
H 0.7781763579470115 1.8964154361407357 0.9279731581054412
H -0.877956663780423 0.332508515629416 1.3116164642461856
H -1.2509452271731663 2.0193633285704977 -0.4938884429527236
H -2.206571558409126 0.829980784322655 -1.404467143813697
H -2.796111006812848 1.4348740313835924 0.15613365924952094
H -1.5186913030548226 -2.0367497594475226 0.9446668199487558
H -2.3525102712092125 -1.5883530432954336 -0.5611307860443367
H -2.9634942402098234 -1.0062485287082386 1.0001168922943202
*
