! wb97x-v def2-tzvp def2/J RIJCOSX DEFGRID2 scfconv7 GCP(DFT/TZ) printgap
%output
    printlevel normal
end
* xyz 0 1
C -2.1586488172015716 0.07087600600100237 0.7532358551514323
C -1.548763487648017 0.1422727345513168 -0.6452091397306184
C -0.22456589763564147 -0.6072754683874481 -0.7434858803043701
C 0.924308949126332 0.02279889618009172 0.0029918665941024865
O 0.9101289428389563 1.201980532672844 0.34508757676620955
C 2.0959022912681737 -0.8658315879467814 0.2974959485578409
H -3.104926135173131 0.6191832474483309 0.7999430027713903
H -1.4871747034491358 0.5000408219338807 1.5043290791635089
H -2.3585277865492174 -0.9682759933438905 1.0371628577354284
H -1.3986007078133882 1.1872658683680557 -0.938150102968174
H -2.245920958675948 -0.2907131326486812 -1.3707141001078071
H -0.3262136301957937 -1.6493600181358536 -0.41497945265296615
H 0.11658354381655424 -0.6652662233486571 -1.7888713918965395
H 2.9732205648119225 -0.28184939970029854 0.5808015903341299
H 2.3188221951262213 -1.513358790790952 -0.5562530147504637
H 1.8177507930457608 -1.5249149534490514 1.1301689385505305
*
