! r2scan-3c def2/J RI DEFGRID2 scfconv6 printgap
%output
    printlevel normal
end
%cpcm
    smd true
    smdsolvent "water"
end
* xyz 0 1
C -1.6841637078 0.9554641184 -1.0057039249
C -1.2787944578 0.1579481778 0.2320715067
C -2.4127941191 -0.7861179327 0.6322347222
C 0.0004476291 -0.6533850896 -0.0062261494
C 1.2787588855 0.1636266747 -0.2298025984
C 1.6818035523 0.9418631702 1.0209858845
C 2.4147569984 -0.7721683133 -0.6435747658
H -1.8183910498 0.2901271216 -1.856161453
H -2.6218979021 1.4768115995 -0.8272694291
H -0.9309170582 1.6955175897 -1.2617448812
H -1.1121691461 0.855783265 1.0585970257
H -3.3272051954 -0.227478641 0.8180599463
H -2.6050927154 -1.5044371566 -0.1620478331
H -2.156746562 -1.3341905203 1.5360528204
H -0.1604410126 -1.2931940484 -0.8780712129
H 0.1621885576 -1.3085960054 0.8539073776
H 1.1119335788 0.8743427637 -1.0452481388
H 0.9275074018 1.6772137441 1.2875107204
H 1.8153376901 0.2632915805 1.8610520796
H 2.6193617938 1.4668212803 0.8518782936
H 2.1584788423 -1.3100041531 -1.5534414328
H 3.3271931554 -0.208701452 -0.8244561672
H 2.6106834819 -1.4994754416 0.1415649118
*
