! r2scan-3c def2/J RI DEFGRID2 scfconv6 printgap
%output
    printlevel normal
end
* xyz 0 1
C -2.5438899139 0.6982348599 -0.6555689848
C -1.7496628392 0.3579893101 0.6074218199
C -0.5047730374 -0.4072251381 0.2363711217
O -0.4982824195 -1.524219196 -0.2401397671
O 0.5898139279 0.2985813908 0.4762238363
C 1.8750206889 -0.2551619621 0.142502079
C 2.7312187277 0.8292046273 -0.4875839276
H -3.4748657028 1.1869440882 -0.3855187201
H -1.9717331951 1.3633624469 -1.2973344487
H -2.7682616418 -0.2107859615 -1.2085235392
H -2.3544402006 -0.2769725027 1.2556837065
H -1.4603007535 1.2627958263 1.1392505308
H 2.3206670351 -0.6175640288 1.0731539393
H 1.7228439756 -1.1008579575 -0.5353704307
H 2.8266832098 1.6684227292 0.1949845511
H 3.7159613551 0.4275802446 -0.7025908602
H 2.2795409895 1.1780312398 -1.4120791268
*
