! r2scan-3c def2/J RI DEFGRID2 scfconv6 printgap
%output
    printlevel normal
end
%cpcm
    smd true
    smdsolvent "water"
end
* xyz 0 1
C 1.7668811331 -0.4409251408 -0.5423574874
O 1.0436633617 -0.0960158238 0.6219538658
C 0.0502253166 0.8864772432 0.4327876984
C -1.1192534378 0.4765857075 -0.4713324363
N -1.7158931991 -0.772571147 -0.0256591902
H 2.5900927922 -1.0661373466 -0.2050474483
H 2.1601152528 0.4553550681 -1.0349726336
H 1.1467861923 -1.0033477569 -1.2446638005
H -0.3193181881 1.0911422518 1.4409698686
H 0.5016987512 1.803924522 0.0244244695
H -1.8235319328 1.3265011429 -0.4784265777
H -0.766109461 0.328069602 -1.495619556
H -2.5594998028 -0.9595794796 -0.5548162754
H -1.9677094342 -0.7042092936 0.9543210476
*
