! r2scan-3c def2/J RI DEFGRID2 scfconv6 printgap
%output
    printlevel normal
end
* xyz 0 1
C -2.4441635672 0.7386297927 0.5466365424
C -1.2467675331 -0.2137177352 0.4937366693
C -1.7157190436 -1.5450141846 -0.0976765888
C -0.0802658274 0.4020870761 -0.3102865285
C 0.2760551763 1.7920334386 0.2238110222
C 1.1608880345 -0.5175246403 -0.3640835802
C 2.1240707299 -0.0911537993 -1.4739960728
C 1.9085382975 -0.6028385854 0.9655050506
H -2.2158657804 1.6371246526 1.1113479037
H -2.7456499925 1.024017531 -0.4591554848
H -3.2873939558 0.2484053274 1.0284605353
H -0.9110488324 -0.3902096797 1.5211865151
H -1.9465646679 -1.4291187404 -1.1546344918
H -2.6154559573 -1.8810127388 0.4130225723
H -0.96676015 -2.3240873012 0.0110571839
H -0.4299493774 0.5180131589 -1.3439417946
H 1.2060905472 2.1442264177 -0.2127390123
H 0.3871026652 1.7726794982 1.3051759879
H -0.4964480319 2.511694962 -0.0309412275
H 0.8166033167 -1.5229719059 -0.621355166
H 2.9265775763 -0.8194187658 -1.5684173387
H 1.6064441051 -0.0277313536 -2.4285214484
H 2.5742868999 0.8752290664 -1.2618263509
H 1.2443603075 -0.9075499917 1.7698611748
H 2.3523964739 0.3545070206 1.2243491089
H 2.7081959743 -1.3369312631 0.891953484
*
