  11
        -20.20197416
 C          1.6398208089        1.1963465268        0.0000241766
 C          0.2549601437        1.2289684720       -0.0001458547
 C         -0.4266001527        0.0204577244       -0.0001004626
 C          0.2995217444       -1.1654159952       -0.0001158090
 N          1.6174180420       -1.1860474456       -0.0000205327
 C          2.2725972896       -0.0380032609        0.0001488929
 Cl        -2.1522225817       -0.0100677281        0.0000659458
 H          2.2113145782        2.1113536012        0.0000742107
 H         -0.2855250912        2.1631662357       -0.0001258378
 H         -0.1969436705       -2.1257910915       -0.0000533171
 H          3.3510396810       -0.1171438372        0.0003235972
