  19
        -22.67009845
 C          2.3976811407        0.0000421502        0.0089476241
 N          0.9838593619        0.0000557229       -0.2895574807
 C          0.3224211777        1.1913630948        0.2118180908
 C         -1.1452058818        1.1858188874       -0.2292660910
 N         -1.8542517594       -0.0000461691        0.2132091956
 C         -1.1451142118       -1.1858649603       -0.2292053601
 C          0.3225474071       -1.1913591498        0.2117483609
 H          2.8541949321       -0.8850673201       -0.4321881044
 H          2.6067357198       -0.0001711106        1.0916854040
 H          2.8540811295        0.8852814703       -0.4319212610
 H          0.3746808409        1.2472955674        1.3179166831
 H          0.8296947252        2.0681656455       -0.1974232395
 H         -1.6576110407        2.0693852830        0.1573001185
 H         -1.1872344349        1.2023421497       -1.3214218496
 H         -1.9043360239       -0.0000013541        1.2300066139
 H         -1.6574048540       -2.0694477772        0.1574237572
 H         -1.1871844185       -1.2024947261       -1.3213321012
 H          0.3748607530       -1.2473195678        1.3178302955
 H          0.8298867814       -2.0681012935       -0.1975404114
