! pbe def2-sv(p) def2/J RI DEFGRID1 loosescf d4 GCP(DFT/SV(P)) printgap
%output
    printlevel normal
end
* xyz 0 1
C -1.9975295936 0.4792929206 -0.7269021673
C -1.5033455784 -0.5355345239 0.2958990728
C -0.2412986685 -0.055103419 1.0261224862
C 0.9391604771 0.0910417741 0.1051734618
C 1.3449951574 1.2730765853 -0.3315601703
C 1.6240729977 -1.1826710714 -0.2865331205
H -1.2314277159 0.6690821853 -1.4751011984
H -2.2401592318 1.4214374583 -0.2402746619
H -2.889313664 0.1114928677 -1.2287246579
H -2.2865207743 -0.7125728013 1.0361165463
H -1.2996979418 -1.4847280737 -0.2029405725
H -0.4566033846 0.904753516 1.4992839245
H 0.0035415179 -0.7755858351 1.810018739
H 2.1851083333 1.3777973404 -0.9979841224
H 0.8539912006 2.1867503929 -0.0411885591
H 0.9208671947 -1.8629178603 -0.7637927141
H 2.4434983836 -0.9897552759 -0.9734136897
H 2.017864904 -1.6811525791 0.5984405457
*
