! r2scan-3c def2/J RI DEFGRID2 scfconv6 printgap
%output
    printlevel normal
end
* xyz 0 1
C 2.1170491713 -1.0166272216 -0.419299958
C 1.7536142664 0.3776902893 0.0774341261
C 0.3722982551 0.4616446644 0.7286916387
C -0.8019507994 0.2098372609 -0.2381799479
H -0.4726957504 0.3996484777 -1.2660368865
C -1.3520832183 -1.2113099637 -0.1282782054
O -1.840071614 1.1599102514 -0.0391044568
H 2.0283090073 -1.7432915932 0.3849963269
H 3.1429641435 -1.0283377346 -0.7795883851
H 1.4687419944 -1.3190778053 -1.2372916506
H 2.4948631406 0.6924297699 0.8155326941
H 1.7987924335 1.0824758879 -0.7558010909
H 0.3207987078 -0.2422906437 1.5619385146
H 0.2530381703 1.4706827164 1.1310327558
H -2.1840795676 -1.3391099747 -0.8171411253
H -0.5828342817 -1.9375606414 -0.3672094092
H -1.7052932137 -1.3986953166 0.8840262998
H -2.2467684145 0.9978902141 0.8235675151
*
