! r2scan-3c def2/J RI DEFGRID2 scfconv6 printgap
%output
    printlevel normal
end
%cpcm
    smd true
    smdsolvent "water"
end
* xyz 0 1
C -1.5185523793 1.0839335521 0.5594657411
C -1.1514461874 -0.3060732955 0.0447282534
C -2.3279814074 -0.8712311781 -0.7550839903
C 0.0966362315 -0.3153917721 -0.8494764159
C 1.4763076848 -0.0852631309 -0.2052485908
C 1.7787226785 1.3799395068 0.1073854148
C 1.6930278303 -0.9502053439 1.0346415461
H -1.5523876974 1.7973679839 -0.2609218734
H -2.4989272536 1.0590841634 1.0313631488
H -0.8050149481 1.4376989039 1.2965234794
H -0.9821919854 -0.9650371452 0.9014324691
H -3.2271962369 -0.8991258142 -0.1438806886
H -2.5253000335 -0.2503781415 -1.6266693648
H -2.1157091582 -1.8823670696 -1.0952738489
H -0.0397694273 0.4237502688 -1.6432383588
H 0.1343410224 -1.2973426048 -1.3299019227
H 2.2063701049 -0.4027314716 -0.9613753388
H 2.8377803007 1.4984222634 0.3281014318
H 1.5346023734 2.0131919827 -0.7421057815
H 1.2189849928 1.7277481243 0.9699388468
H 2.7312001134 -0.8908950338 1.3539023278
H 1.0680981383 -0.6124661446 1.8575867343
H 1.4584302691 -1.9907657384 0.8222883271
*
