  17
        -20.13300812
 C          4.3854367386        1.0634602191       -0.1873943266
 C          3.5642981341       -0.0888808261        0.3773021340
 C          2.1892435962       -0.1751057230       -0.2799147235
 C          1.3545077785       -1.3182273371        0.2896371437
 C          0.0012424594       -1.4586404162       -0.3761407817
 I         -1.3100775988        0.2170030595        0.0227503259
 H          3.8761209492        2.0104654859       -0.0232577885
 H          5.3598450873        1.1098719406        0.2928537856
 H          4.5359853055        0.9371935186       -1.2574681041
 H          3.4411492338        0.0474209042        1.4541937437
 H          4.1005245175       -1.0283874676        0.2217315677
 H          2.3118176919       -0.3171867640       -1.3571255707
 H          1.6637641430        0.7705689052       -0.1271901610
 H          1.8889948447       -2.2624738956        0.1407922088
 H          1.2281134983       -1.1788676028        1.3660916367
 H         -0.5301031785       -2.3350469381       -0.0134846403
 H          0.0943763912       -1.5120504269       -1.4581749400
  17
        -20.13281258
 C          5.2547693895        0.9048916846       -0.3422030080
 C          3.8843152777        0.9596859952        0.3209928835
 C          2.8116380266        0.3019702743       -0.5444185412
 C          1.4361845777        0.3555216763        0.1204537053
 C          0.3946197358       -0.3031208608       -0.7594087745
 I         -1.5724316834       -0.2520556976        0.1396465505
 H          5.5546895785       -0.1263723909       -0.5154399195
 H          5.2370587795        1.4212483324       -1.2995532500
 H          6.0028398235        1.3782073329        0.2889350949
 H          3.6108036257        2.0010741466        0.5046879096
 H          3.9279793328        0.4533593745        1.2878179130
 H          3.0858941423       -0.7398142953       -0.7291351267
 H          2.7678317833        0.8087632746       -1.5118359966
 H          1.4805576734       -0.1519443509        1.0870682437
 H          1.1623721225        1.3972355915        0.3039985694
 H          0.6208248719       -1.3531882921       -0.9282857304
 H          0.3012424033        0.2048220971       -1.7162767794
  17
        -20.13234005
 C          4.0120121197        0.9925511410        0.1561597385
 C          2.9540794696       -0.0349705992        0.5394049975
 C          2.1657178885       -0.5011164869       -0.6828651015
 C          1.1984197221       -1.6475940255       -0.3922334904
 C          0.1134445288       -1.3248562048        0.6154093525
 I         -1.1911028358        0.2768713643       -0.0297319217
 H          4.7219333559        0.5665685522       -0.5497104100
 H          3.5477598169        1.8604714688       -0.3068804986
 H          4.5592213865        1.3242124113        1.0354362083
 H          2.2796294188        0.4151545554        1.2704872234
 H          3.4360577774       -0.8952487311        1.0116288699
 H          2.8691046528       -0.8373775533       -1.4485520635
 H          1.6132835520        0.3450912137       -1.0979624981
 H          0.7372893766       -1.9674725565       -1.3302528742
 H          1.7606077159       -2.4987827733        0.0065028217
 H          0.5268094420       -1.0082052128        1.5685034987
 H         -0.5359264111       -2.1825858984        0.7734458872
  17
        -20.13228526
 C          3.8633469940        0.8862225991        0.7464741291
 C          3.6340873389       -0.1317192156       -0.3648936362
 C          2.1542446268       -0.3988260105       -0.6391825415
 C          1.4490195619       -1.1076006949        0.5140599477
 C          0.0174750852       -1.4809631297        0.1892730281
 I         -1.2642995213        0.2468937782       -0.0556673346
 H          3.3277559081        1.8087759674        0.5334014613
 H          3.5257200925        0.5048834830        1.7068224639
 H          4.9225935555        1.1174613997        0.8312607124
 H          4.1314687692       -1.0705385383       -0.1087870087
 H          4.0906791919        0.2425546151       -1.2839031907
 H          2.0684972243       -1.0171429886       -1.5373679866
 H          1.6549317983        0.5516813790       -0.8415323689
 H          1.9826982959       -2.0357495021        0.7447921545
 H          1.4703070566       -0.4810761528        1.4073901548
 H         -0.4319526170       -2.0636475063        0.9895969986
 H         -0.0486667251       -2.0345633026       -0.7443213776
  17
        -20.13219321
 C          4.6034157813        0.0749317546       -0.0387355943
 C          3.4065090997        1.0167350147        0.0286291024
 C          2.1253071533        0.3333718537        0.5054764210
 C          1.5849485466       -0.6889427827       -0.4906736700
 C          0.2866316617       -1.3250957909       -0.0390081911
 I         -1.3697403538        0.0699862281        0.0039741569
 H          4.7616843251       -0.4098132459        0.9225333324
 H          4.4588261319       -0.6941061469       -0.7936129943
 H          5.5034871686        0.6296243841       -0.2931788158
 H          3.2346979813        1.4582315173       -0.9556289465
 H          3.6385740008        1.8312110375        0.7183624174
 H          1.3655367839        1.1016366995        0.6698532037
 H          2.3132637436       -0.1583146160        1.4637687973
 H          1.4487463756       -0.2137475054       -1.4653267688
 H          2.3093542749       -1.4991104960       -0.6138671335
 H          0.3683274472       -1.7201624110        0.9708327706
 H         -0.0222096286       -2.1183739852       -0.7152308332
  17
        -20.13205584
 C          4.9685146957        1.0670441118        0.2801102307
 C          3.4860222313        0.9979391833       -0.0660501952
 C          2.9400274139       -0.4190626549        0.1017100162
 C          1.4897990690       -0.5772373634       -0.3623630741
 C          0.5257949371        0.1645040645        0.5409505764
 I         -1.5296315057       -0.1456585667       -0.0592801325
 H          5.3423765623        2.0809885123        0.1604291962
 H          5.1343286283        0.7596224019        1.3103695805
 H          5.5435891504        0.4104272191       -0.3689825514
 H          3.3407241722        1.3199453007       -1.0998898721
 H          2.9394472984        1.6883181242        0.5792870512
 H          3.0210169380       -0.7176965909        1.1499577333
 H          3.5598775270       -1.1025928404       -0.4831830159
 H          1.3944628662       -0.2096645151       -1.3869232648
 H          1.2358652807       -1.6401453225       -0.3656189173
 H          0.6817421298        1.2388284869        0.5086104414
 H          0.5952483966       -0.1839049485        1.5687057864
  17
        -20.13199894
 C          4.3503406602        1.3021575937       -0.1972597336
 C          4.0972564448       -0.1045578534        0.3319571719
 C          2.8713029777       -0.7727388872       -0.2919844749
 C          1.5580556538       -0.0961617716        0.1033081401
 C          0.3812754774       -0.8687241075       -0.4548953433
 I         -1.5073397408        0.0536735382        0.0599809502
 H          5.2811142309        1.6925741743        0.2072810085
 H          4.4267765174        1.2930803933       -1.2825708433
 H          3.5502315960        1.9802521163        0.0876821539
 H          3.9753549596       -0.0688427561        1.4169095297
 H          4.9712795828       -0.7243302129        0.1185235164
 H          2.8402113525       -1.8176217116        0.0285926760
 H          2.9708700716       -0.7640905059       -1.3802932085
 H          1.4883004301       -0.0499252293        1.1927714760
 H          1.5382395653        0.9256346099       -0.2790442756
 H          0.3403630313       -1.8798371850       -0.0566777091
 H          0.4096795593       -0.9095179008       -1.5411830606
  17
        -20.13156625
 C          3.9892032743        0.3068224776       -0.7086180928
 C          2.8488272624        0.8173579753        0.1646408533
 C          2.1274473600       -0.2921218504        0.9309763166
 C          1.4607284028       -1.3552992236        0.0576549236
 C          0.4296612300       -0.8242854636       -0.9168973129
 I         -1.2379656651        0.1503979895        0.0612909751
 H          4.6845425900       -0.2855419688       -0.1174851994
 H          3.6198788135       -0.3098479946       -1.5249124980
 H          4.5344257178        1.1429577315       -1.1404339654
 H          2.1376656227        1.3738373999       -0.4490213879
 H          3.2532715627        1.5197609690        0.8970748090
 H          1.3693619854        0.1651809902        1.5716303968
 H          2.8456435596       -0.7941626266        1.5838277646
 H          2.2219588274       -1.8751641281       -0.5312563952
 H          0.9932905291       -2.0965168544        0.7112715783
 H         -0.0069644848       -1.6332642998       -1.4977602272
 H          0.8511309070       -0.0855464415       -1.5924141188
  17
        -20.13123521
 C          3.9074745756        1.2814631863        0.1367542927
 C          3.6965726111       -0.0837750145       -0.5077156582
 C          2.8895379136       -1.0475696770        0.3648690419
 C          1.4725789747       -0.5795166486        0.7093285744
 C          0.6072679117       -0.4416994891       -0.5263536116
 I         -1.4289408821        0.0888747653       -0.0186503769
 H          4.5833610098        1.8813629734       -0.4681403235
 H          2.9708730064        1.8252327913        0.2298922528
 H          4.3421123896        1.1710890524        1.1279137615
 H          4.6719572592       -0.5395658022       -0.6938785965
 H          3.2102543728        0.0400702951       -1.4774035327
 H          3.4283352694       -1.2039753403        1.3023223399
 H          2.8283748271       -2.0130751241       -0.1443720969
 H          1.0251723056       -1.3130991393        1.3848529097
 H          1.5152489115        0.3721535709        1.2416079898
 H          0.5473596431       -1.3772043773       -1.0777104839
 H          0.9588406622        0.3475519579       -1.1847038522
  17
        -20.13003225
 C          3.8997353958        0.8648220623        0.2403224767
 C          2.4899151358        0.3547137450       -0.0316838365
 C          2.4368793000       -1.1710977074       -0.0010393782
 C          1.1107272133       -1.7722338092       -0.4699034981
 C         -0.0729721289       -1.4809374442        0.4383364775
 I         -1.1253646216        0.3555719625       -0.0233020852
 H          3.9195026055        1.9517783190        0.2281520151
 H          4.2476359546        0.5261346667        1.2142561720
 H          4.5925536045        0.5002075749       -0.5154089656
 H          2.1591739937        0.7109242526       -1.0099160618
 H          1.8178855213        0.7690639877        0.7208916555
 H          2.6500412044       -1.5200596199        1.0132786180
 H          3.2257826408       -1.5593119775       -0.6506937643
 H          0.8981080440       -1.4424032090       -1.4890180078
 H          1.2295273546       -2.8603604923       -0.5013915391
 H          0.2337155696       -1.4005023606        1.4782619255
 H         -0.8307490946       -2.2551240926        0.3477981047
  17
        -20.12974248
 C          2.9419276788        0.9762800809       -0.4831783616
 C          3.1598997229       -0.4261883144        0.0762793678
 C          2.0634535411       -0.8658522122        1.0587188861
 C          1.0351872667       -1.8266914555        0.4619125620
 C          0.2086414154       -1.2561484318       -0.6719674378
 I         -1.0683972169        0.3747542504       -0.0427087520
 H          1.9997190339        1.0570583432       -1.0184923878
 H          2.9334889493        1.7067902109        0.3227392960
 H          3.7440391186        1.2370611653       -1.1707595805
 H          4.1241806202       -0.4389490717        0.5885179351
 H          3.2261669713       -1.1434981798       -0.7457576203
 H          1.5502128719        0.0161709072        1.4474592282
 H          2.5223518654       -1.3715258662        1.9108882726
 H          1.5556515759       -2.7066746549        0.0688496431
 H          0.3689370582       -2.1698210755        1.2578889385
 H         -0.4624805386       -2.0087523203       -1.0792167072
 H          0.8324133971       -0.8624632536       -1.4691165207
  17
        -20.12970195
 C          3.7536711999        0.9945820938        0.3755739827
 C          2.7845022549        0.0686226257       -0.3477933114
 C          2.1157282975       -0.9093075005        0.6172905674
 C          1.1002470813       -1.8300837092       -0.0787561422
 C         -0.3297467577       -1.6109266092        0.3719452325
 I         -1.0739256956        0.3633887244       -0.1088155325
 H          4.2267455145        1.6754589850       -0.3276386609
 H          3.2291446088        1.5852081275        1.1234622718
 H          4.5317489750        0.4207026942        0.8751226016
 H          3.3228374979       -0.4940376590       -1.1145857820
 H          2.0219703046        0.6692470733       -0.8473921260
 H          1.6170372375       -0.3390710952        1.4045343138
 H          2.8901046501       -1.5095306086        1.0995272155
 H          1.1660336980       -1.6984231279       -1.1611417932
 H          1.3371016658       -2.8770418431        0.1333411488
 H         -0.4252998367       -1.7086529087        1.4507656147
 H         -1.0088916196       -2.3060095859       -0.1161655221
  17
        -20.12964960
 C          3.6067991589        1.2589278915       -0.3580899691
 C          3.8921808654       -0.0826307227        0.3059792796
 C          2.8827483886       -1.1778203567       -0.0433358288
 C          1.4548124339       -0.8915887704        0.4476308403
 C          0.5862802818       -0.3334541061       -0.6619643113
 I         -1.4097615656        0.1278563108        0.0398893113
 H          3.5253672649        1.1431793529       -1.4372318813
 H          2.6864905159        1.6972982136        0.0196858605
 H          4.4152609744        1.9567538645       -0.1518364536
 H          3.9145961968        0.0494998487        1.3902052007
 H          4.8831343350       -0.4241096221       -0.0026013014
 H          3.2299652129       -2.1087214770        0.4093898590
 H          2.8735237347       -1.3282641949       -1.1257540961
 H          1.0018669035       -1.8150878871        0.8154777138
 H          1.4902252817       -0.1908920478        1.2843563414
 H          0.4602278785       -1.0545981038       -1.4660904984
 H          0.9811752414        0.5933901191       -1.0664526677
  17
        -20.12961826
 C          3.5220795792        0.7102007902       -0.8580803019
 C          3.5169890278        0.0513191799        0.5163652041
 C          2.1232992432       -0.3097283207        1.0338188217
 C          1.3968723216       -1.3760374235        0.2052851824
 C          0.4614857837       -0.8204080525       -0.8512838333
 I         -1.2528045822        0.1912777920        0.0046611417
 H          2.8596269554        1.5735158783       -0.8713757765
 H          4.5254073330        1.0505520357       -1.1049841876
 H          3.2090119376        0.0121899257       -1.6313566610
 H          3.9747196913        0.7361982621        1.2340407233
 H          4.1338634090       -0.8503963086        0.4862052077
 H          1.5135486644        0.5950913316        1.0824309135
 H          2.2343225049       -0.6760130560        2.0566912618
 H          2.1347259838       -2.0027180104       -0.3052721584
 H          0.8258345459       -2.0292385688        0.8692361892
 H          0.0498846494       -1.6169493651       -1.4669453710
 H          0.9470309567       -0.0851931743       -1.4849811704
  17
        -20.12933868
 C          3.9179952994        1.3460923615       -0.4124710122
 C          3.7001101315        0.1633255935        0.5257129765
 C          2.9276135618       -0.9945100403       -0.1222578420
 C          1.4330832354       -1.0254991005        0.2124757990
 C          0.6915158087        0.1749626372       -0.3364891729
 I         -1.4400308140        0.0263415449        0.0193193700
 H          4.4654706738        2.1352626072        0.0983085356
 H          4.4980225935        1.0376406697       -1.2798075584
 H          2.9762023244        1.7589655589       -0.7642353684
 H          3.1745758685        0.4973509824        1.4229021415
 H          4.6799312133       -0.1977425569        0.8448917867
 H          3.3498373401       -1.9419951407        0.2186644335
 H          3.0549601277       -0.9543441813       -1.2063556078
 H          1.0049817942       -1.9390276078       -0.2082949691
 H          1.3070392419       -1.0711221468        1.2970863172
 H          0.8107567138        0.2597850612       -1.4139821711
 H          1.0018658247        1.0982051356        0.1436147576
  17
        -20.12922919
 C          2.8841415459        0.8363778787        0.5767211810
 C          2.6183631011       -0.0474275984       -0.6354807052
 C          2.3654922203       -1.5107964592       -0.2708160427
 C          1.1122424314       -1.7830390662        0.5648577557
 C         -0.1989630840       -1.5573893485       -0.1709397274
 I         -0.9967296677        0.4514650411       -0.0107011100
 H          3.1625221213        1.8370289332        0.2554342373
 H          2.0015556118        0.9243762415        1.2047986300
 H          3.6962513849        0.4287838709        1.1757230238
 H          3.4904692086       -0.0144047396       -1.2934901304
 H          1.7758311200        0.3518405538       -1.2012039536
 H          3.2276527014       -1.8801980862        0.2906573782
 H          2.3015498023       -2.0974706869       -1.1919198816
 H          1.1353445984       -2.8389002289        0.8544957728
 H          1.1418004219       -1.2007212866        1.4865298233
 H         -0.9844149074       -2.1900349115        0.2348779505
 H         -0.0957279470       -1.7546335817       -1.2352879971
  17
        -20.12907166
 C          3.0468617389        0.8673818672       -0.6758707755
 C          3.2984096736       -0.2739590476        0.3052938294
 C          2.0601505280       -0.7534484277        1.0701434174
 C          1.1515782865       -1.7348976158        0.3275536961
 C          0.2766490119       -1.1466317874       -0.7612204944
 I         -1.1167929435        0.3356592818       -0.0219351456
 H          2.5303037211        0.5311937377       -1.5709407743
 H          2.4545607511        1.6502838578       -0.2074415026
 H          3.9939678127        1.3010459828       -0.9904252941
 H          4.0237211523        0.0759189780        1.0439527338
 H          3.7529438375       -1.1174883302       -0.2202608507
 H          1.4773766366        0.1127944505        1.3909663466
 H          2.4042196137       -1.2610005077        1.9748635938
 H          1.7680481371       -2.5102940628       -0.1393148746
 H          0.5079900545       -2.2287151144        1.0609653639
 H         -0.3387376751       -1.9199619178       -1.2158001899
 H          0.8546059498       -0.6507986840       -1.5334028112
  17
        -20.12882294
 C          3.8335096106        1.3573865257       -0.3886587920
 C          3.8449752734        0.0749600573        0.4363326558
 C          2.9179793279       -1.0308709610       -0.0790576867
 C          1.4489467228       -0.9204212964        0.3469642464
 C          0.6659539254        0.0877562551       -0.4682058467
 I         -1.4440622568        0.0376703978        0.0217920650
 H          2.8964875409        1.8972621530       -0.2882220249
 H          4.6321906785        2.0175441012       -0.0572847638
 H          3.9916374498        1.1351783981       -1.4419222273
 H          3.5935702362        0.3047995247        1.4740358799
 H          4.8650797985       -0.3168114627        0.4297772892
 H          3.2894691199       -1.9826420942        0.3079912859
 H          2.9791987502       -1.0782788875       -1.1689780349
 H          0.9867094998       -1.9035471470        0.2243276102
 H          1.3955907368       -0.6629668131        1.4073598852
 H          0.7315510655       -0.1237362151       -1.5327696295
 H          0.9806079243        1.1085482938       -0.2793347705
  17
        -20.12833874
 C          3.4658982836        0.6499933555        0.6798349814
 C          2.6430873089        0.3202421178       -0.5597632090
 C          2.2707004577       -1.1613778301       -0.6537252946
 C          1.2647312663       -1.6555755640        0.3938453261
 C         -0.1898411549       -1.5920950459       -0.0339324612
 I         -1.0759754214        0.3838123033        0.0143898935
 H          4.3623477421        0.0341422735        0.7193354987
 H          3.7672917999        1.6944677671        0.6608612203
 H          2.8964065926        0.4845820221        1.5911179119
 H          3.2288893752        0.5755381407       -1.4461052781
 H          1.7479556267        0.9407190195       -0.5741585580
 H          3.1897693343       -1.7439755343       -0.5510446110
 H          1.8707342674       -1.3654639330       -1.6504629925
 H          1.4688438170       -2.7126249511        0.5944659289
 H          1.4035924011       -1.1193561754        1.3333050910
 H         -0.8103031994       -2.1847849234        0.6343644154
 H         -0.3184947297       -1.9491370540       -1.0530648758
  17
        -20.12675179
 C          2.6986040253        0.9292841389        0.7135296987
 C          2.6870974366       -0.1064350626       -0.4051709323
 C          2.3901075508       -1.5303500906        0.0871595059
 C          0.9484723510       -2.0091134153       -0.1035713917
 C         -0.0908570315       -1.3180397463        0.7648597302
 I         -0.9792934795        0.4466482745       -0.1261105571
 H          2.9219229353        1.9139621655        0.3094686067
 H          1.7389075639        0.9870401420        1.2187266242
 H          3.4594982055        0.6822866143        1.4518151672
 H          3.6687797330       -0.0959985313       -0.8838499038
 H          1.9594935418        0.1820353787       -1.1652776901
 H          2.6549009258       -1.6107213498        1.1445028088
 H          3.0268199536       -2.2323094780       -0.4564124146
 H          0.6746669789       -1.9321881971       -1.1579715047
 H          0.9203755493       -3.0726286407        0.1569758319
 H          0.3300136458       -1.0019445935        1.7159858656
 H         -0.9360023978       -1.9765378160        0.9507801242
