  17
        -20.13300812
 C          4.3854367386        1.0634602191       -0.1873943266
 C          3.5642981341       -0.0888808261        0.3773021340
 C          2.1892435962       -0.1751057230       -0.2799147235
 C          1.3545077785       -1.3182273371        0.2896371437
 C          0.0012424594       -1.4586404162       -0.3761407817
 I         -1.3100775988        0.2170030595        0.0227503259
 H          3.8761209492        2.0104654859       -0.0232577885
 H          5.3598450873        1.1098719406        0.2928537856
 H          4.5359853055        0.9371935186       -1.2574681041
 H          3.4411492338        0.0474209042        1.4541937437
 H          4.1005245175       -1.0283874676        0.2217315677
 H          2.3118176919       -0.3171867640       -1.3571255707
 H          1.6637641430        0.7705689052       -0.1271901610
 H          1.8889948447       -2.2624738956        0.1407922088
 H          1.2281134983       -1.1788676028        1.3660916367
 H         -0.5301031785       -2.3350469381       -0.0134846403
 H          0.0943763912       -1.5120504269       -1.4581749400
