! r2scan-3c def2/J RI DEFGRID2 scfconv6 printgap
%output
    printlevel normal
end
* xyz 0 1
C -3.1511334331 -0.2093615884 0.14013575
C -1.7208111809 0.0988177396 0.5632705988
C -0.8434724513 0.3974742965 -0.6495101574
O 0.4762508711 0.7941531993 -0.2529428477
C 1.3840603035 -0.15075127 -0.029881125
O 1.1661586734 -1.3363484553 -0.1733752168
C 2.6901884338 0.434808671 0.4147380624
H -3.7595097884 -0.4260524457 1.0132368692
H -3.5842965986 0.6387332608 -0.383477728
H -3.1740533763 -1.0726131402 -0.5200890803
H -1.2977359851 -0.7538735415 1.0992539656
H -1.7033773049 0.963155332 1.2295436956
H -0.7691956043 -0.4852049549 -1.2926761521
H -1.2326776239 1.2446864472 -1.215737823
H 2.7201883223 1.4932743967 0.1806952371
H 3.5073551543 -0.0978121554 -0.0622901647
H 2.7792691922 0.2981313749 1.4903539704
*
