  14
  -17.7181104100000       3.703827087964506E-002 !mtd7
 C         -0.9153992331        1.4294181843        0.2571750284
 C         -0.4614461632        0.0000511540        0.0000125188
 C         -0.9151833823       -0.4918425874       -1.3665250056
 C         -0.9157248517       -0.9374960727        1.1090452173
 Cl         1.3507530474       -0.0000445289        0.0001298709
 H         -0.5463713702        1.7816248952        1.2174671887
 H         -0.5461151985        2.0943308292       -0.5199409505
 H         -2.0029072967        1.4716536761        0.2646171399
 H         -2.0025995048       -0.5061698460       -1.4070403033
 H         -0.5457240385        0.1634214644       -2.1516968215
 H         -0.5462868513       -1.4974442177       -1.5535616245
 H         -0.5459250493       -1.9450082029        0.9343630701
 H         -2.0032343964       -0.9658136882        1.1410767723
 H         -0.5473914429       -0.5965858730        2.0736298988
  14
  -17.7181104100000       3.703827087964506E-002 !mtd11
 C         -0.9155689520        1.4294181961        0.2571996052
 C         -0.4614738805        0.0001085120       -0.0000378720
 C         -0.9152347800       -0.4918003665       -1.3665640532
 C         -0.9156868955       -0.9373762443        1.1090229646
 Cl         1.3508437606       -0.0001371751        0.0001555234
 H         -2.0030469729        1.4717621603        0.2641691043
 H         -0.5470053943        1.7813973619        1.2176972859
 H         -0.5459178144        2.0944470423       -0.5195722818
 H         -2.0026813790       -0.5059878390       -1.4070822070
 H         -0.5457243269        0.1634704430       -2.1516409017
 H         -0.5464009117       -1.4974771214       -1.5536400844
 H         -0.5466722398       -1.9450768909        0.9339552777
 H         -2.0031579342       -0.9649534398        1.1416903472
 H         -0.5466260243       -0.5969286261        2.0734736286
  14
  -17.7181104100000       3.703827087964506E-002 !mtd6
 C         -0.9154494899        1.4293688533        0.2571543132
 C         -0.4614641021        0.0000408810       -0.0000777096
 C         -0.9152901348       -0.4918041250       -1.3666037858
 C         -0.9156422827       -0.9374110676        1.1090239968
 Cl         1.3507992992       -0.0000778119        0.0002174057
 H         -0.5467500103        1.7815801794        1.2175842916
 H         -0.5460496504        2.0942351310       -0.5199986147
 H         -2.0030043048        1.4715934354        0.2642620548
 H         -2.0027781610       -0.5062814579       -1.4070657742
 H         -0.5460355694        0.1636186708       -2.1517088457
 H         -0.5461871484       -1.4973034157       -1.5538508042
 H         -2.0031233780       -0.9649617102        1.1417539252
 H         -0.5465168581       -0.5969441223        2.0734566097
 H         -0.5466361134       -1.9451179934        0.9339162770
  14
  -17.7181104100000       3.703827087964506E-002 !mtd7
 C         -0.9154585307        1.4292951862        0.2571596702
 C         -0.4613739849       -0.0000150227       -0.0000748928
 C         -0.9152702527       -0.4917595277       -1.3665950971
 C         -0.9156976697       -0.9373805014        1.1090766630
 Cl         1.3507864027       -0.0000632904        0.0001858403
 H         -0.5465810379        1.7815121166        1.2174589199
 H         -0.5462017197        2.0942455887       -0.5199234237
 H         -2.0029296543        1.4714654613        0.2644868055
 H         -0.5464200921       -1.4973738901       -1.5537609572
 H         -2.0027664409       -0.5059717997       -1.4071431698
 H         -0.5458304340        0.1635744249       -2.1517201586
 H         -2.0031790803       -0.9644888779        1.1420741038
 H         -0.5461431543       -0.5972247793        2.0734698226
 H         -0.5471190121       -1.9451819572        0.9336889296
  14
  -17.7181104100000       3.703827087964506E-002 !input
 C         -0.9154637036        1.4293672316        0.2571488137
 C         -0.4614672487        0.0000497980       -0.0000806422
 C         -0.9152696295       -0.4917928512       -1.3665714055
 C         -0.9156339236       -0.9374034283        1.1090064668
 Cl         1.3507856407       -0.0000940876        0.0002071873
 H         -0.5458172871        2.0943637914       -0.5196767044
 H         -2.0029381980        1.4716575872        0.2641151561
 H         -0.5468714194        1.7813628110        1.2176678302
 H         -2.0027691677       -0.5070038685       -1.4067608146
 H         -0.5467072686        0.1641319781       -2.1515465920
 H         -0.5455292637       -1.4969769018       -1.5541535545
 H         -0.5473767853       -1.9453071731        0.9333916617
 H         -2.0031106132       -0.9641575547        1.1423273923
 H         -0.5456178433       -0.5973917766        2.0732676920
  14
  -17.7181104000000       3.703787894461452E-002 !mtd11
 C         -0.9154150655        1.4293645633        0.2572257178
 C         -0.4614728576        0.0000289107       -0.0001381175
 C         -0.9152710016       -0.4918551749       -1.3666887401
 C         -0.9156017008       -0.9373594120        1.1090430931
 Cl         1.3507494847       -0.0000785680        0.0002321031
 H         -2.0028539223        1.4717338311        0.2642650286
 H         -0.5466935347        1.7814732656        1.2176584491
 H         -0.5458068827        2.0942577240       -0.5196205288
 H         -2.0027033981       -0.5058321412       -1.4073930571
 H         -0.5455901860        0.1632827957       -2.1517788190
 H         -0.5466109707       -1.4975434228       -1.5536999602
 H         -0.5462100795       -0.5969780107        2.0734375415
 H         -0.5467767814       -1.9451068615        0.9337336936
 H         -2.0031007152       -0.9646553154        1.1418835627
  14
  -17.7181104000000       3.703787894461452E-002 !mtd11
 C         -0.9154892005        1.4294635401        0.2570207214
 C         -0.4614798493        0.0001054753       -0.0001240916
 C         -0.9153787642       -0.4917534870       -1.3665924091
 C         -0.9154790408       -0.9374688876        1.1089305765
 Cl         1.3507792701       -0.0001433232        0.0003163671
 H         -0.5468071187        1.7815030299        1.2174230755
 H         -0.5458439134        2.0944488971       -0.5198147878
 H         -2.0029430845        1.4718052231        0.2640259697
 H         -0.5467647301       -1.4974826684       -1.5535418867
 H         -2.0028986582       -0.5056053476       -1.4073057252
 H         -0.5455837356        0.1633815695       -2.1516928932
 H         -0.5461999781       -0.5970589627        2.0733517824
 H         -0.5466122186       -1.9452205691        0.9337532059
 H         -2.0029514947       -0.9648606290        1.1417918236
  14
  -17.7181104000000       3.703787894461452E-002 !mtd9
 C         -0.9155290086        1.4293678208        0.2571657639
 C         -0.4615029095        0.0000947806       -0.0000164035
 C         -0.9152346535       -0.4917793601       -1.3665567583
 C         -0.9157036228       -0.9374076922        1.1090491799
 Cl         1.3508486663       -0.0001148901        0.0001516379
 H         -2.0030424913        1.4713882201        0.2655538532
 H         -0.5458963385        1.7818758740        1.2170457976
 H         -0.5471595841        2.0942317391       -0.5204282384
 H         -0.5459747394       -1.4972135392       -1.5537819338
 H         -2.0026989560       -0.5063659512       -1.4070408108
 H         -0.5460239526        0.1637935980       -2.1515471233
 H         -0.5472989649       -1.9452857134        0.9335496964
 H         -2.0032202851       -0.9643341406        1.1421464922
 H         -0.5460224800       -0.5973324924        2.0734372185
  14
  -17.7181103900000       3.703748701373141E-002 !mtd8
 C         -0.9154159141        1.4294427370        0.2570687842
 C         -0.4614627012        0.0000564281        0.0000910178
 C         -0.9152134631       -0.4917996556       -1.3664020148
 C         -0.9157706616       -0.9376021325        1.1090000143
 Cl         1.3508033296       -0.0000367818        0.0001168421
 H         -0.5465438107        1.7816365051        1.2173651543
 H         -0.5460356206        2.0943439254       -0.5199550571
 H         -2.0028827650        1.4717499878        0.2643564166
 H         -0.5464105021       -1.4974228829       -1.5534820423
 H         -2.0026794696       -0.5058955012       -1.4070525267
 H         -0.5455803128        0.1634672903       -2.1514324469
 H         -0.5469439520       -1.9453634592        0.9338598451
 H         -2.0032352944       -0.9650946100        1.1416019165
 H         -0.5467118613       -0.5972878774        2.0735150538
  14
  -17.7181103900000       3.703748701373141E-002 !mtd2
 C         -0.9153956891        1.4293717461        0.2571492275
 C         -0.4615039018        0.0000185430       -0.0000018049
 C         -0.9151314947       -0.4917609680       -1.3665972450
 C         -0.9156466042       -0.9374659514        1.1091398589
 Cl         1.3507018858       -0.0000800845        0.0001378184
 H         -0.5462467825        1.7815577084        1.2173476788
 H         -0.5459089537        2.0943997018       -0.5198327899
 H         -2.0027854022        1.4718174700        0.2644797104
 H         -0.5456822585        0.1636343016       -2.1516070040
 H         -0.5461926072       -1.4972906077       -1.5537185500
 H         -2.0025297928       -0.5060566890       -1.4072071308
 H         -0.5464445055       -0.5971109889        2.0735621190
 H         -0.5467578460       -1.9451493775        0.9339002254
 H         -2.0031123592       -0.9649313896        1.1419217519
  14
  -17.7181103900000       3.703748701373141E-002 !mtd7
 C         -0.9155507849        1.4293506124        0.2570578050
 C         -0.4614900789        0.0000340922       -0.0000118424
 C         -0.9153364240       -0.4917043485       -1.3665130695
 C         -0.9157168374       -0.9374491187        1.1090247172
 Cl         1.3509025313       -0.0000947234        0.0001928327
 H         -0.5459093736        2.0942371482       -0.5198167568
 H         -2.0030088407        1.4717298121        0.2640152211
 H         -0.5469583305        1.7815228823        1.2174121782
 H         -0.5455459954       -1.4969191206       -1.5541010767
 H         -2.0028856944       -0.5069294407       -1.4065486306
 H         -0.5468188537        0.1642641946       -2.1515653839
 H         -0.5471783394       -0.5968075819        2.0735864647
 H         -0.5462742071       -1.9450238380        0.9342062385
 H         -2.0031760009       -0.9654977708        1.1413007287
  14
  -17.7181103800000       3.703709508699566E-002 !mtd10
 C         -0.9154927774        1.4294162275        0.2571803701
 C         -0.4614608647        0.0001123279       -0.0000334342
 C         -0.9151982760       -0.4917943251       -1.3666083347
 C         -0.9156173844       -0.9374024313        1.1090571918
 Cl         1.3507636481       -0.0001290048        0.0001736856
 H         -0.5469463543        2.0941946557       -0.5203716002
 H         -2.0029827469        1.4715384776        0.2655094554
 H         -0.5457362113        1.7819251224        1.2170424290
 H         -0.5456383462        0.1634351016       -2.1517471635
 H         -0.5464101188       -1.4974416283       -1.5536887620
 H         -2.0026553152       -0.5059074158       -1.4072278009
 H         -0.5449541687       -1.9447117635        0.9350381357
 H         -2.0030948181       -0.9665474338        1.1403097077
 H         -0.5483231883       -0.5959013596        2.0738430644
  14
  -17.7181103800000       3.703709508699566E-002 !mtd4
 C         -0.9155680204        1.4293960491        0.2572390804
 C         -0.4614941774        0.0000718761       -0.0000327462
 C         -0.9151823183       -0.4917950359       -1.3665496947
 C         -0.9157357765       -0.9373620124        1.1090726307
 Cl         1.3508457213       -0.0001275057        0.0001155247
 H         -0.5471336140        2.0941878056       -0.5202810311
 H         -2.0030233943        1.4714677439        0.2657052756
 H         -0.5457602922        1.7818575473        1.2170463566
 H         -0.5457670586        0.1634990853       -2.1516146353
 H         -0.5462131875       -1.4972951349       -1.5537221760
 H         -2.0025977845       -0.5061545725       -1.4072008242
 H         -2.0032344529       -0.9639342486        1.1425060461
 H         -0.5456481893       -0.5975178494        2.0733591556
 H         -0.5477358911       -1.9453300238        0.9333644879
  14
  -17.7181103800000       3.703709508699566E-002 !mtd6
 C         -0.9155294189        1.4293771287        0.2572216559
 C         -0.4614000226        0.0001074096       -0.0001197148
 C         -0.9152295218       -0.4917999925       -1.3666229605
 C         -0.9155856912       -0.9373093540        1.1090201672
 Cl         1.3507567617       -0.0001527234        0.0002056270
 H         -0.5466776358        2.0942183170       -0.5200673419
 H         -2.0030046234        1.4714015419        0.2650393302
 H         -0.5462884182        1.7817396866        1.2174049619
 H         -2.0027351823       -0.5049027013       -1.4076080593
 H         -0.5447808867        0.1629829848       -2.1517479721
 H         -0.5472172624       -1.4978490363       -1.5533463446
 H         -2.0030707302       -0.9645845405        1.1419120412
 H         -0.5461782420       -0.5970259940        2.0734200424
 H         -0.5468397822       -1.9450792997        0.9337289699
  14
  -17.7181103800000       3.703709508699566E-002 !gc
 C         -0.9154620573        1.4293482786        0.2571467300
 C         -0.4615011420        0.0000111367       -0.0000712030
 C         -0.9153166140       -0.4917986851       -1.3665897942
 C         -0.9156687153       -0.9373974846        1.1090025996
 Cl         1.3508406770       -0.0000683364        0.0002151193
 H         -0.5477077346        1.7810868115        1.2180516481
 H         -0.5450545876        2.0944793743       -0.5191882762
 H         -2.0029512657        1.4717729645        0.2631215250
 H         -2.0028016443       -0.5051840713       -1.4073954014
 H         -0.5451767438        0.1630550929       -2.1517430299
 H         -0.5471966187       -1.4977365221       -1.5534153319
 H         -0.5462350951       -0.5971825645        2.0734256057
 H         -0.5470463303       -1.9452254297        0.9336846335
 H         -2.0031449367       -0.9646072890        1.1419892473
  14
  -17.7181103800000       3.703709508699566E-002 !gc
 C         -0.9154890286        1.4293651773        0.2571633168
 C         -0.4615124113        0.0000225145       -0.0000185341
 C         -0.9152531983       -0.4917872443       -1.3665484379
 C         -0.9157120270       -0.9374074832        1.1090300664
 Cl         1.3508449540       -0.0000788719        0.0001626126
 H         -0.5455163222        2.0944176330       -0.5194430642
 H         -2.0029807403        1.4717054018        0.2636596549
 H         -0.5473179200        1.7812899215        1.2178363142
 H         -2.0027411598       -0.5045683072       -1.4075773408
 H         -0.5445655309        0.1627554547       -2.1517070315
 H         -0.5476276489       -1.4979608703       -1.5531156185
 H         -0.5468670844       -0.5968548410        2.0735753584
 H         -0.5464326571       -1.9450397495        0.9340410402
 H         -2.0032002054       -0.9652698439        1.1414627744
  14
  -17.7181103800000       3.703709508699566E-002 !mtd11
 C         -0.9153189711        1.4293077436        0.2573121569
 C         -0.4614769620       -0.0000371635       -0.0000811749
 C         -0.9151406162       -0.4918978864       -1.3666883419
 C         -0.9157167800       -0.9373704006        1.1091410090
 Cl         1.3507059646       -0.0000117620        0.0001302372
 H         -2.0027743920        1.4715077617        0.2649486725
 H         -0.5461717650        1.7815336144        1.2175182595
 H         -0.5462027666        2.0942043366       -0.5198312205
 H         -0.5452682898        0.1631991604       -2.1517687051
 H         -0.5466864979       -1.4976322698       -1.5537459848
 H         -2.0025914999       -0.5057045223       -1.4074675885
 H         -2.0031896150       -0.9642677538        1.1424163967
 H         -0.5458652351       -0.5972845241        2.0734359287
 H         -0.5473442180       -1.9451694002        0.9336830401
  14
  -17.7181103800000       3.703709508699566E-002 !gc
 C         -0.9154830118        1.4293690764        0.2570760987
 C         -0.4615280604        0.0000183233       -0.0000804455
 C         -0.9153531299       -0.4917457464       -1.3665879265
 C         -0.9156178172       -0.9374271921        1.1090005305
 Cl         1.3508499743       -0.0000887371        0.0002508844
 H         -0.5450919057        2.0944767990       -0.5192867795
 H         -2.0029766218        1.4718051797        0.2630546715
 H         -0.5477262156        1.7811444215        1.2179616921
 H         -0.5472279117       -1.4976736800       -1.5533658054
 H         -2.0028469909       -0.5052226376       -1.4074040389
 H         -0.5452236880        0.1630852794       -2.1517738009
 H         -0.5469721718       -1.9452520964        0.9336446234
 H         -2.0031059956       -0.9645887850        1.1420029300
 H         -0.5460713843       -0.5972088446        2.0733933327
  14
  -17.7181103700000       3.703670316454648E-002 !mtd5
 C         -0.9153860933        1.4293320735        0.2570452278
 C         -0.4615580935       -0.0000687008       -0.0000323681
 C         -0.9152981244       -0.4917128335       -1.3666405458
 C         -0.9156651586       -0.9374959082        1.1091204826
 Cl         1.3508015192       -0.0000257965        0.0002052810
 H         -0.5456274772        1.7815847638        1.2169752775
 H         -0.5467427277        2.0941632726       -0.5204852000
 H         -2.0028758974        1.4714620361        0.2655530302
 H         -0.5467338459        0.1643361637       -2.1515839380
 H         -0.5453231606       -1.4968576769       -1.5541903070
 H         -2.0028101106       -0.5070734976       -1.4068495463
 H         -2.0031694371       -0.9649917788        1.1419552698
 H         -0.5464048056       -0.5971391713        2.0735673578
 H         -0.5467394058       -1.9452277455        0.9338815448
  14
  -17.7181103600000       3.703631124610535E-002 !mtd1
 C         -0.9153953752        1.4292366154        0.2570859503
 C         -0.4613163091       -0.0000788605       -0.0000577803
 C         -0.9152226073       -0.4916562368       -1.3666586928
 C         -0.9156132823       -0.9373869429        1.1091718750
 Cl         1.3506885462       -0.0000616736        0.0001994263
 H         -2.0028904173        1.4716286297        0.2634126327
 H         -0.5473366090        1.7811054416        1.2178182965
 H         -0.5452644078        2.0943276380       -0.5194214713
 H         -0.5472333183       -1.4976330612       -1.5534974295
 H         -2.0026780373       -0.5048546526       -1.4075451746
 H         -0.5449585225        0.1631090594       -2.1518682725
 H         -2.0031331805       -0.9649153921        1.1416048393
 H         -0.5467143740       -0.5968224799        2.0737473595
 H         -0.5465329900       -1.9451411811        0.9342000179
  14
  -17.7181103600000       3.703631124610535E-002 !gc
 C         -0.9154722072        1.4293537682        0.2571351954
 C         -0.4615251425        0.0000148215       -0.0000724427
 C         -0.9153271591       -0.4917899025       -1.3665918844
 C         -0.9156572555       -0.9373981668        1.1089982125
 Cl         1.3508522660       -0.0000755043        0.0002235962
 H         -2.0029633428        1.4718604435        0.2626769305
 H         -0.5480770645        1.7809604892        1.2182253955
 H         -0.5447088184        2.0945419795       -0.5189805701
 H         -0.5451880837        0.1630724077       -2.1517367102
 H         -0.5472112361       -1.4977271354       -1.5534260372
 H         -2.0028151147       -0.5051732060       -1.4073959292
 H         -0.5461550590       -0.5972194562        2.0734093854
 H         -0.5470757619       -1.9452348615        0.9336360956
 H         -2.0031320561       -0.9645760245        1.1420533042
  14
  -17.7181103600000       3.703631124610535E-002 !gc
 C         -0.9154350069        1.4292777075        0.2571319122
 C         -0.4616395463       -0.0000483513       -0.0000785890
 C         -0.9153003772       -0.4917432418       -1.3666322012
 C         -0.9156767937       -0.9373825931        1.1090848126
 Cl         1.3508570719       -0.0000493166        0.0002085991
 H         -2.0029125457        1.4716840497        0.2638721871
 H         -0.5470421107        1.7812257236        1.2177146115
 H         -0.5456306707        2.0942687948       -0.5196012931
 H         -0.5470842783       -1.4976377341       -1.5533834392
 H         -2.0027837701       -0.5052195661       -1.4076624150
 H         -0.5450132346        0.1631049925       -2.1517218680
 H         -0.5454163761       -0.5975207390        2.0733013310
 H         -0.5476008841       -1.9453139410        0.9333328333
 H         -2.0031780116       -0.9640905139        1.1426982595
  14
  -17.7181103500000       3.703591933181145E-002 !gc
 C         -0.9154327707        1.4293550309        0.2571057691
 C         -0.4616151474       -0.0000045841       -0.0000190801
 C         -0.9152424929       -0.4917520439       -1.3665483268
 C         -0.9156915808       -0.9374696001        1.1090698391
 Cl         1.3508314844       -0.0000595077        0.0001700831
 H         -0.5443441930        2.0945630543       -0.5188334309
 H         -2.0029100210        1.4720696697        0.2623679145
 H         -0.5482490511        1.7808462392        1.2183111194
 H         -0.5455747345        0.1634850295       -2.1516130016
 H         -0.5465377543       -1.4974300478       -1.5535864740
 H         -2.0027228851       -0.5058044695       -1.4072638201
 H         -0.5458141412       -0.5974020043        2.0733554400
 H         -0.5472522067       -1.9453216177        0.9335376784
 H         -2.0031878416       -0.9644475866        1.1424108906
  14
  -17.7181103500000       3.703591933181145E-002 !mtd4
 C         -0.9155728770        1.4293813931        0.2572370609
 C         -0.4614480521        0.0000862436       -0.0000700882
 C         -0.9151873445       -0.4917680477       -1.3666497489
 C         -0.9156559406       -0.9373212784        1.1091172147
 Cl         1.3508088472       -0.0001560421        0.0001501086
 H         -0.5454645941        1.7822168608        1.2168794177
 H         -0.5475210438        2.0939964769       -0.5205975524
 H         -2.0031625581        1.4712637159        0.2660713533
 H         -0.5451411804        0.1632748945       -2.1517642280
 H         -0.5467409929       -1.4976369793       -1.5535553016
 H         -2.0027143559       -0.5053780014       -1.4074160410
 H         -0.5472957752       -1.9451621866        0.9336913335
 H         -2.0030810943       -0.9643440569        1.1423379115
 H         -0.5460785089       -0.5972501970        2.0734293657
  14
  -17.7181103400000       3.703552742166475E-002 !gc
 C         -0.9155404068        1.4293330505        0.2570413387
 C         -0.4616123589        0.0000318694       -0.0000770379
 C         -0.9154108445       -0.4917136415       -1.3665496775
 C         -0.9156586782       -0.9374249212        1.1089814589
 Cl         1.3509331535       -0.0000974688        0.0002570460
 H         -2.0030154987        1.4720141361        0.2624378277
 H         -0.5482320131        1.7808706799        1.2181811662
 H         -0.5446071803        2.0944870492       -0.5190081311
 H         -0.5454178545        0.1633090528       -2.1516132049
 H         -0.5470286617       -1.4975231007       -1.5534289719
 H         -2.0028876774       -0.5053643640       -1.4074244257
 H         -0.5470009714       -1.9452122447        0.9335425960
 H         -2.0031576955       -0.9646290296        1.1421793020
 H         -0.5459579174       -0.5972211691        2.0732890216
  14
  -17.7181103300000       3.703513551566519E-002 !mtd9
 C         -0.9152886874        1.4292536445        0.2572550233
 C         -0.4616569507       -0.0000784958       -0.0001824127
 C         -0.9152476547       -0.4918456871       -1.3668205313
 C         -0.9156294052       -0.9373378392        1.1091756469
 Cl         1.3507697291        0.0000038974        0.0002218315
 H         -0.5468033590        2.0940095500       -0.5202149246
 H         -2.0027614277        1.4713055284        0.2657387236
 H         -0.5456466404        1.7815171941        1.2172695578
 H         -0.5452980764       -1.4969611194       -1.5544716392
 H         -2.0027140171       -0.5073211861       -1.4070970239
 H         -0.5468066153        0.1641616702       -2.1518390602
 H         -2.0031241973       -0.9641657199        1.1424411453
 H         -0.5457481478       -0.5973172612        2.0734914647
 H         -0.5474163796       -1.9452659116        0.9336985118
  14
  -17.7181103200000       3.703474361395198E-002 !mtd1
 C         -0.9154003193        1.4294720530        0.2570207178
 C         -0.4614425855        0.0000478905        0.0000730118
 C         -0.9152156736       -0.4917532193       -1.3664627994
 C         -0.9156771473       -0.9376187500        1.1090379192
 Cl         1.3507548728       -0.0000558880        0.0001578076
 H         -2.0029643985        1.4717484496        0.2640472764
 H         -0.5466305302        1.7815720715        1.2172800852
 H         -0.5459002605        2.0945028741       -0.5197286947
 H         -2.0026857140       -0.5079391686       -1.4063046701
 H         -0.5475078132        0.1646759339       -2.1514573842
 H         -0.5446488470       -1.4965646143       -1.5544200705
 H         -2.0031228448       -0.9660612792        1.1408343619
 H         -0.5476183678       -0.5966843659        2.0736891765
 H         -0.5457539487       -1.9450474195        0.9344552945
