! wb97x-v def2-tzvp def2/J RIJCOSX DEFGRID2 scfconv7 GCP(DFT/TZ) printgap
%output
    printlevel normal
end
* xyz 0 1
C -2.560288849293803 0.37601526740520647 0.2627747339142619
C -1.957432854915816 -0.7324688102450059 0.8528984827790107
C -0.6574899120875638 -1.091667183430077 0.5020597267222958
C 0.06023061238395311 -0.35251782418684474 -0.4431112954568912
C -0.5557964720777624 0.7593873699323658 -1.0286184671332992
C -1.854500576907364 1.1210356499429877 -0.681110211739539
C 1.4811902354110331 -0.7076383429010239 -0.7864228096136594
C 2.501369921278779 0.14040400661348165 -0.025199761585659848
O 2.385532812063778 0.004860439572826858 1.4017316331199727
H -3.574084738971116 0.6552027067639813 0.5321918281559174
H -2.49997464348468 -1.3206056444578018 1.5872884911480358
H -0.19372295779093818 -1.9600023163278095 0.9629629067354236
H -0.011552309874385118 1.3441401036522023 -1.7662592845546583
H -2.318223831053673 1.9840533186263614 -1.1497385101294175
H 1.6688173542788263 -1.766322590276164 -0.5696545784441891
H 1.662270405834039 -0.5521641634666101 -1.8571459311559637
H 3.515206798379394 -0.129330549913215 -0.35172709430889587
H 2.3436150052725004 1.2030267308988547 -0.23787076008109168
H 2.498226264957485 -0.9321675948555865 1.6110743060907435
*
