  20
        -27.11294915
 C         -3.3381652963        0.8571495403       -0.1726647848
 C         -1.9431301695        0.5534019589        0.3589168784
 C         -1.5055744848       -0.8672580488        0.0100340994
 C         -0.1110134525       -1.1828333472        0.5531020985
 C          0.9458101366       -0.3769641608       -0.1658327531
 O          1.0213930314       -0.2277789525       -1.3561912250
 O          1.8191451148        0.1556348560        0.7004692594
 C          2.8763179013        0.9201216796        0.1371954375
 H         -3.3614982264        0.7573476110       -1.2553187631
 H         -4.0662630698        0.1684338112        0.2508030467
 H         -3.6340962722        1.8711427303        0.0854431261
 H         -1.2304150687        1.2623487958       -0.0678461321
 H         -1.9309975830        0.6807191402        1.4442846352
 H         -1.4912133612       -0.9856520085       -1.0749005109
 H         -2.2216872376       -1.5805563520        0.4229496030
 H          0.1170253377       -2.2379738948        0.3838017332
 H         -0.0447348639       -0.9781098703        1.6217275894
 H          2.4745036815        1.7701170313       -0.4180183400
 H          3.4676317950        0.3049726106       -0.5440240090
 H          3.4843916342        1.2610004529        0.9709393199
