! pbe def2-sv(p) def2/J RI DEFGRID1 loosescf d4 GCP(DFT/SV(P)) printgap
%output
    printlevel normal
end
* xyz 0 1
C -1.3266693188 0.3073125114 -0.0087608562
C 0.152084257 0.6602755424 0.2359994393
C 1.0928806255 -0.3044967276 -0.5061381482
O 1.2452823889 -1.4594139131 0.2891335808
O 0.4051074818 2.0061901873 -0.0891932231
O -1.6079924069 -1.0651897242 0.101779294
H -1.6002345133 0.579197949 -1.0333729275
H -1.9500970227 0.8921446772 0.6823027141
H 0.3807978966 0.5729384585 1.3046677567
H 2.0588252232 0.1997093418 -0.6450162258
H 0.6690945351 -0.5596126292 -1.4856542469
H 1.7748740105 -2.1117953684 -0.1885436917
H 0.1874826544 2.1623673421 -1.0196476651
H -1.2201336307 -1.4074583934 0.9193588127
*
