! r2scan-3c def2/J RI DEFGRID2 scfconv6 printgap
%output
    printlevel normal
end
* xyz 0 1
C -0.3587103789 2.3946061292 0.1630675532
N -0.1121108175 1.1461912213 -0.5372392734
C -1.2634304606 0.4566097943 -1.0300312026
C -2.0048634614 -0.3708184802 0.0463474822
F -3.2397961677 0.1085173084 0.3038162389
F -2.1853181498 -1.6572490324 -0.3138441909
F -1.3685207723 -0.3961268834 1.2252431613
C 1.0635221229 0.4520619564 -0.27747292
C 1.212186748 -0.905800272 -0.5789403185
C 2.4128964805 -1.5549023368 -0.3606074835
C 3.4989270825 -0.8817854408 0.1692022023
C 3.3621569081 0.4598317399 0.481104287
C 2.1681293727 1.1188097933 0.2648245748
H -0.2058549632 2.2877089405 1.2404741415
H -1.3849809701 2.7071521753 -0.008723
H 0.3019915882 3.1733204458 -0.2179620601
H -1.979223379 1.1819325708 -1.4247368327
H -0.9865489681 -0.2236895333 -1.8388366099
H 0.3938715637 -1.4883561775 -0.9715109134
H 2.4922119704 -2.6048677362 -0.6018009565
H 4.4322407614 -1.3949684916 0.3413865844
H 4.1956567246 1.0037437963 0.9004470523
H 2.1043895687 2.1629013248 0.5177862233
*
