! pbe def2-sv(p) def2/J RI DEFGRID1 loosescf d4 GCP(DFT/SV(P)) printgap
%output
    printlevel normal
end
* xyz 0 1
C -4.0327860785 -0.6319100376 -1.6315988206
C -3.0325840359 -1.5483369975 -0.9361145871
C -2.4617441692 -1.0404069009 0.3981140366
H -1.9774447274 -1.9006319529 0.8762141813
C -3.5068545642 -0.4940175273 1.360537131
N -1.3381544987 -0.1017247984 0.1837187799
C -0.0643878402 -0.6794445412 0.2332033583
O 0.0817851954 -1.8778896346 0.410497221
C 1.0346794702 0.2404381704 0.0701655816
C 0.8572120461 1.5700219713 -0.1388050816
N -0.4258944198 2.0120895901 -0.2016554492
C -1.5533379456 1.230424364 -0.0727047263
O -2.6464997001 1.7502623038 -0.1900145487
C 1.9546771335 2.5524942689 -0.3138438465
Br 2.7712041316 -0.5256824468 0.1587482197
H -3.6260033702 0.3633889046 -1.7819591364
H -4.2914529006 -1.0508475688 -2.6008056553
H -4.942034144 -0.542167987 -1.044912595
H -3.5177739606 -2.5047050938 -0.7331423108
H -2.1893595216 -1.7496506673 -1.6025365484
H -4.0015379184 0.3835838453 0.9591264034
H -4.2442534098 -1.2705813042 1.5400570126
H -3.0406374062 -0.2307542812 2.307303252
H -0.6090382919 2.9950860698 -0.3800405667
H 1.57572683 3.5686243362 -0.3008498057
H 2.4630139789 2.3719469016 -1.2602854988
H 2.6963306023 2.4279443264 0.4727989229
*
