! r2scan-3c def2/J RI DEFGRID2 scfconv6 printgap
%output
    printlevel normal
end
%cpcm
    smd true
    smdsolvent "water"
end
* xyz 0 1
C -4.3627331591 -1.8651407363 0.8239450789
C -2.9041933952 -1.4290400944 0.7623468549
C -2.6399690402 -0.4829199379 -0.4135356975
H -3.4062572516 0.2995433043 -0.4141896692
C -2.6410968911 -1.1852168253 -1.7666210602
N -1.3695809045 0.2433947653 -0.2165585063
C -0.1797284948 -0.4748099394 -0.1379149628
O -0.1508115969 -1.6887147911 -0.2258420345
C 1.0074239428 0.3352373221 0.0553506989
C 0.9681542799 1.6866357803 0.1537395227
N -0.2601608649 2.2749541711 0.0619745876
C -1.4459312306 1.6138875731 -0.1203203496
O -2.4921253412 2.2357140843 -0.1888493816
C 2.1243106246 2.5945736023 0.3508136378
Br 2.6259047042 -0.6561320194 0.1600303652
H -4.5260128715 -2.4767853124 1.706869191
H -5.0169484235 -0.9981207237 0.8773674091
H -4.6310008257 -2.4510196085 -0.0500283247
H -2.6490278859 -0.9055545732 1.6877827831
H -2.2565044996 -2.3024563081 0.6799395034
H -1.9018873094 -1.981622162 -1.7842820781
H -3.6222599754 -1.6093073053 -1.9512031798
H -2.4175208051 -0.4735137468 -2.5583568964
H -0.3310857498 3.2855618619 0.1311382034
H 2.1899494835 3.2934797128 -0.4804779096
H 3.0519600153 2.0350696403 0.4162823273
H 1.9908411246 3.1684915968 1.2654287017
*
