! pbe def2-sv(p) def2/J RI DEFGRID1 loosescf d4 GCP(DFT/SV(P)) printgap
%output
    printlevel normal
end
* xyz 0 1
C -1.2098109481 0.1847221216 -0.4807051506
C -0.0456352353 0.4323672468 0.4959504347
C 0.9600223325 -0.735575477 0.533987145
O 1.8341269907 -0.7591068692 -0.5684400202
O 0.5717371368 1.6329778857 0.087987207
O -2.1776725301 -0.7007857715 0.0224108257
H -0.8281075457 -0.1546847457 -1.4513269236
H -1.7194942229 1.1383591949 -0.6345427215
H -0.4798959142 0.5440971583 1.5029647729
H 0.4128483743 -1.6842905576 0.6187027203
H 1.6066895107 -0.6385978573 1.4095400767
H 1.327150299 -0.7090721059 -1.3903787313
H 1.3896420653 1.7625419847 0.5889919682
H -1.8106956121 -1.5939033608 0.0819978341
*
