  27
        -40.73419363
 C          2.8255219069        1.4340562124        0.0231298007
 O          1.4352772197        1.2731292469       -0.2251381639
 C          0.9222937969        0.0209443290        0.0804459833
 C         -0.5970848362        0.1040701931       -0.0135702931
 C         -1.2440203093        1.2959391024        0.2808332257
 C         -2.6257824308        1.3590107629        0.2485501090
 C         -3.3687275079        0.2341125538       -0.0684081064
 C         -2.7256164206       -0.9580447695       -0.3529591946
 C         -1.3434676958       -1.0258557000       -0.3236312985
 O          1.4520116353       -0.9779764385       -0.7729506255
 C          1.3076595024       -0.7190984588       -2.1536878014
 O          1.3340552977       -0.2990231209        1.3831995716
 C          0.9313336760       -1.5550045817        1.8865957754
 H          3.0129849188        1.5389358790        1.0931843218
 H          3.1122100798        2.3432181000       -0.5019118160
 H          3.3901856955        0.5810589891       -0.3595446665
 H         -0.6545639265        2.1641237159        0.5270282440
 H         -3.1245210959        2.2899446846        0.4744394397
 H         -4.4474419937        0.2855372939       -0.0918499607
 H         -3.2994695481       -1.8401274799       -0.5968168744
 H         -0.8389969141       -1.9552829193       -0.5447544922
 H          0.2527716070       -0.6576001290       -2.4390849101
 H          1.7811718373       -1.5591475603       -2.6577157646
 H          1.8035468547        0.2130023715       -2.4372638811
 H          1.2610902900       -2.3632530746        1.2306525655
 H         -0.1550453266       -1.6028650363        2.0148230457
 H          1.4191313743       -1.6418552538        2.8553390772
  27
        -40.73383776
 C          1.4289921113        2.1405976454        0.2038416296
 O          1.6960378970        0.9159726004       -0.4502439091
 C          0.9369228396       -0.1708278142        0.0069711068
 C         -0.5568546814        0.1169986187       -0.0790845119
 C         -1.3940037915        0.0496371172        1.0234945907
 C         -2.7439457054        0.3226721786        0.8781510532
 C         -3.2585441740        0.6616726094       -0.3613102329
 C         -2.4211536061        0.7289767755       -1.4631192290
 C         -1.0726539256        0.4574740305       -1.3239633862
 O          1.3129856143       -1.1980609245       -0.8703500077
 C          0.6026177876       -2.4088338869       -0.7023138462
 O          1.2452048483       -0.4907258342        1.3360822821
 C          2.6128123758       -0.7879212739        1.5728562655
 H          0.4515473990        2.5408790239       -0.0850356094
 H          2.2152931256        2.8199107712       -0.1180868030
 H          1.4577159737        2.0245096792        1.2912733423
 H         -0.9829467907       -0.2154175156        1.9842565038
 H         -3.3954353266        0.2698592557        1.7379864880
 H         -4.3121609113        0.8736643372       -0.4699044699
 H         -2.8191908994        0.9931413873       -2.4317273745
 H         -0.4020866546        0.5040173732       -2.1694107072
 H          0.5901603937       -2.7197341462        0.3464898015
 H          1.1351201203       -3.1442695882       -1.3014636003
 H         -0.4290034924       -2.3173036564       -1.0579247883
 H          2.9298826582       -1.6568877629        0.9916213892
 H          2.6838904091       -0.9996883829        2.6374747467
 H          3.2476395717        0.0619416406        1.3119810099
  27
        -40.73325510
 C          1.2866793899        1.8228283057       -1.3181098105
 O          1.6035060108        1.1505841199       -0.1162061113
 C          0.9399671899       -0.0712404103        0.0672304473
 C         -0.5723730165        0.0973149180        0.0170456798
 C         -1.1459497948        0.9962958878        0.9083458815
 C         -2.5148698425        1.1903681102        0.9098716815
 C         -3.3149695268        0.4883544486        0.0229269496
 C         -2.7427773624       -0.4068976070       -0.8643583502
 C         -1.3722086290       -0.6053590215       -0.8706010547
 O          1.3105264540       -1.0076668189       -0.9056027041
 C          2.7059394938       -1.2735560949       -0.9797350030
 O          1.3750790600       -0.4564793941        1.3436903792
 C          0.7931435287       -1.6471347390        1.8341364525
 H          1.9941029663        2.6461085188       -1.3855112192
 H          0.2632325775        2.2117568967       -1.2983489937
 H          1.3996814963        1.1623870760       -2.1825852087
 H         -0.5036736668        1.5326321621        1.5911993206
 H         -2.9578998334        1.8895597549        1.6035927790
 H         -4.3845308107        0.6396515265        0.0242539713
 H         -3.3652461211       -0.9549717850       -1.5562326677
 H         -0.9160098157       -1.2999631391       -1.5573609377
 H          3.2437025003       -0.6812836786       -0.2392584594
 H          3.0584006904       -1.0201101211       -1.9816892390
 H          2.8702756511       -2.3366349171       -0.7921230325
 H          1.3485135196       -1.8914202928        2.7367261850
 H          0.8845781305       -2.4603592463        1.1084763686
 H         -0.2650970135       -1.5024196568        2.0755615404
  27
        -40.73233488
 C          1.4349578647        1.9708334983        0.3413498583
 O          1.5549300523        0.6132027926        0.7113915755
 C          0.7971533612       -0.2794040401       -0.0720132539
 C         -0.6855658903        0.0748299653       -0.0501329994
 C         -1.4112524757        0.2988293353       -1.2094227477
 C         -2.7577031455        0.6116748662       -1.1291806744
 C         -3.3818357021        0.7034516895        0.1027877192
 C         -2.6567888130        0.4792616960        1.2613300875
 C         -1.3125036919        0.1646903587        1.1861268679
 O          1.2212917736       -0.2517298395       -1.4065004479
 C          2.5300493686       -0.7332619463       -1.6506644780
 O          0.9253293690       -1.5624298766        0.4753882367
 C          1.9386261202       -1.7971100608        1.4366757207
 H          0.4414913442        2.3598304028        0.5855399304
 H          1.6170223817        2.1031274355       -0.7285764443
 H          2.1925977345        2.4987111481        0.9169122046
 H         -0.9164456406        0.2236688069       -2.1636972797
 H         -3.3211751347        0.7837611586       -2.0344972002
 H         -4.4324735826        0.9479112698        0.1612536179
 H         -3.1393751572        0.5483046463        2.2252072751
 H         -0.7384793939       -0.0118328343        2.0834766211
 H          2.7192068327       -0.5390543702       -2.7045726064
 H          2.5903765472       -1.8073801649       -1.4568161537
 H          3.2665283594       -0.2033127163       -1.0387072961
 H          2.9333878042       -1.5451616226        1.0636964802
 H          1.8778282131       -2.8645379908        1.6418491960
 H          1.7517672100       -1.2313959125        2.3525329248
  27
        -40.73192662
 C          1.4940533470        1.8821715095       -0.7876999189
 O          1.5965301873        0.8999722436        0.2230965148
 C          0.8281077567       -0.2570037076       -0.0045423957
 C         -0.6647994053        0.0474993669       -0.0611095366
 C         -1.1965992737        0.9805015104        0.8201254301
 C         -2.5564940895        1.2342391345        0.8258894187
 C         -3.3924945422        0.5554882322       -0.0441072094
 C         -2.8641371381       -0.3794012194       -0.9179578313
 C         -1.5044418664       -0.6371994926       -0.9267226482
 O          1.1876612940       -0.8709928841       -1.2044540095
 C          2.5045922654       -1.3974901010       -1.2397233812
 O          1.0533631095       -1.1569757441        1.0553429645
 C          1.7302097498       -0.6928882798        2.2046341488
 H          1.7237024978        1.4619554088       -1.7703694576
 H          2.2255625661        2.6443214270       -0.5273353160
 H          0.4912205484        2.3193659125       -0.8147982102
 H         -0.5407652871        1.5110012650        1.4951951758
 H         -2.9629319115        1.9630470082        1.5118910472
 H         -4.4542418503        0.7545641066       -0.0394583568
 H         -3.5141434691       -0.9129607318       -1.5957692106
 H         -1.0819190961       -1.3634847334       -1.6013263010
 H          3.2405997070       -0.6321323870       -0.9764109430
 H          2.6590540543       -1.7259044781       -2.2650757472
 H          2.5984162573       -2.2435356714       -0.5552004472
 H          1.7571972129       -1.5520314506        2.8726662751
 H          1.1907678541        0.1283329362        2.6824215612
 H          2.7467640496       -0.3666602220        1.9727824626
  27
        -40.73163620
 C          2.6675627927        1.4527681982       -0.5157275792
 O          1.3432493250        1.2826025620       -0.0312050039
 C          0.8260947740       -0.0003315910        0.1516791546
 C         -0.6831913525        0.1480280154       -0.0089048781
 C         -1.5714264115       -0.1486711230        1.0122482854
 C         -2.9321542695        0.0053999812        0.8062690909
 C         -3.4084133038        0.4511801175       -0.4143574272
 C         -2.5198663315        0.7480369239       -1.4346019284
 C         -1.1602106381        0.5985775772       -1.2330640401
 O          1.3705977344       -0.8489758966       -0.8358684506
 C          0.7899963951       -2.1349556666       -0.8962361271
 O          1.0614767364       -0.5215905954        1.4306177038
 C          2.4112639376       -0.7175357703        1.8110572632
 H          2.9031840053        0.7207392206       -1.2874971227
 H          3.4050385236        1.3925911409        0.2891511529
 H          2.6822829792        2.4550329018       -0.9423358673
 H         -1.1912682917       -0.4942994723        1.9594337223
 H         -3.6226137048       -0.2242760179        1.6045504475
 H         -4.4707643869        0.5691849152       -0.5710849191
 H         -2.8866271527        1.0977871440       -2.3884486484
 H         -0.4561512917        0.8280793515       -2.0186032881
 H         -0.2292792621       -2.0894194760       -1.2914419209
 H          0.7697920795       -2.6031271836        0.0915347558
 H          1.4232328219       -2.7109283666       -1.5681829327
 H          3.0053911948       -1.1009440952        0.9777065007
 H          2.3896717230       -1.4531744735        2.6146703903
 H          2.8488034276        0.2125983334        2.1845078353
  27
        -40.72528465
 C          2.5224286038        1.5670775190       -0.2174694022
 O          1.3621483267        1.1180432952        0.4525581743
 C          0.7488916455       -0.0706769355        0.0311926451
 C         -0.7629521744        0.1377925375       -0.0175684630
 C         -1.3464231162        1.3467022137        0.3244015561
 C         -2.7230227399        1.4871933549        0.2743055544
 C         -3.5187854545        0.4241068592       -0.1146212272
 C         -2.9349505919       -0.7852587631       -0.4535924791
 C         -1.5607073802       -0.9297361750       -0.4057239239
 O          1.1353384452       -0.4357226298       -1.2711132641
 C          2.1106873086       -1.4457150319       -1.4406103982
 O          0.9609258756       -1.1149116361        0.9541473692
 C          2.0687850672       -1.0337351658        1.8281396435
 H          3.4014523249        0.9616623916        0.0295139967
 H          2.6768505239        2.5836832648        0.1400154972
 H          2.3741573090        1.5747908066       -1.2994673214
 H         -0.7196579398        2.1697255251        0.6284893404
 H         -3.1741403655        2.4319813654        0.5405220220
 H         -4.5926091901        0.5367698916       -0.1534594178
 H         -3.5524027080       -1.6180917059       -0.7568781508
 H         -1.0963549963       -1.8674829675       -0.6667319248
 H          1.8623787940       -2.3344249960       -0.8558714737
 H          3.1156407017       -1.1008700695       -1.1739935139
 H          2.0831232767       -1.6852729695       -2.5020379825
 H          3.0221060293       -1.1511860039        1.3016541802
 H          1.9362234990       -1.8608112649        2.5229843972
 H          2.0683475425       -0.0885179479        2.3755012765
