  27
        -40.73419363
 C          2.8255219069        1.4340562124        0.0231298007
 O          1.4352772197        1.2731292469       -0.2251381639
 C          0.9222937969        0.0209443290        0.0804459833
 C         -0.5970848362        0.1040701931       -0.0135702931
 C         -1.2440203093        1.2959391024        0.2808332257
 C         -2.6257824308        1.3590107629        0.2485501090
 C         -3.3687275079        0.2341125538       -0.0684081064
 C         -2.7256164206       -0.9580447695       -0.3529591946
 C         -1.3434676958       -1.0258557000       -0.3236312985
 O          1.4520116353       -0.9779764385       -0.7729506255
 C          1.3076595024       -0.7190984588       -2.1536878014
 O          1.3340552977       -0.2990231209        1.3831995716
 C          0.9313336760       -1.5550045817        1.8865957754
 H          3.0129849188        1.5389358790        1.0931843218
 H          3.1122100798        2.3432181000       -0.5019118160
 H          3.3901856955        0.5810589891       -0.3595446665
 H         -0.6545639265        2.1641237159        0.5270282440
 H         -3.1245210959        2.2899446846        0.4744394397
 H         -4.4474419937        0.2855372939       -0.0918499607
 H         -3.2994695481       -1.8401274799       -0.5968168744
 H         -0.8389969141       -1.9552829193       -0.5447544922
 H          0.2527716070       -0.6576001290       -2.4390849101
 H          1.7811718373       -1.5591475603       -2.6577157646
 H          1.8035468547        0.2130023715       -2.4372638811
 H          1.2610902900       -2.3632530746        1.2306525655
 H         -0.1550453266       -1.6028650363        2.0148230457
 H          1.4191313743       -1.6418552538        2.8553390772
