! r2scan-3c def2/J RI DEFGRID2 scfconv6 printgap
%output
    printlevel normal
end
* xyz 0 1
C -2.2479641715 1.1503695633 -0.3932382289
C -1.8383226063 0.0340590011 0.5719972449
C -0.5403311513 -0.5755359414 0.1088987666
O -0.4474129091 -1.6021411749 -0.533833563
O 0.4974491819 0.1665910193 0.4621677128
C 1.8147859346 -0.2323452449 0.0461362517
C 2.6467761362 1.0137369646 -0.1968005475
H -2.3627511481 0.7555751741 -1.3999684087
H -3.1936507098 1.5793316515 -0.0763112149
H -1.4929580926 1.931860119 -0.4061747893
H -2.5979058143 -0.7464554726 0.5898903227
H -1.6966364132 0.4446553239 1.5707548381
H 2.2419196165 -0.8431302953 0.8472720625
H 1.7236525736 -0.8470889166 -0.8550126759
H 2.220247538 1.6014099052 -1.0047435051
H 2.6734210634 1.6210820594 0.7030102423
H 3.6573328517 0.7228576048 -0.4636252613
*
