! r2scan-3c def2/J RI DEFGRID2 scfconv6 printgap
%output
    printlevel normal
end
* xyz 0 1
C 2.0427508177 0.409452714 1.0059256768
C 1.2356226299 0.793884444 -0.2318992882
C 0.2383466594 -0.256276747 -0.7596490297
H 0.1152174826 -0.0498124503 -1.8308297876
C 0.79119921 -1.6773286485 -0.6477132685
C -1.1837583794 -0.1642473181 -0.161834106
C -1.2343439281 -0.1759863944 1.3638023511
C -1.9278293658 1.0639361682 -0.6885925632
H 2.6628859225 1.2527957665 1.3042211461
H 1.4033910461 0.1480368482 1.8422876978
H 2.6995041355 -0.4304465748 0.7973487983
H 1.9476283807 1.0108408655 -1.0326563076
H 0.6967908626 1.7205337479 -0.0286571333
H 1.7750064165 -1.7359612974 -1.1075155376
H 0.8744222949 -1.991035604 0.3885817934
H 0.1338422903 -2.3749112142 -1.1625694233
H -1.7233332158 -1.0502996325 -0.5190987961
H -0.8007994031 0.7329962283 1.7721055327
H -0.7069005871 -1.0355653576 1.7681565682
H -2.2696859192 -0.2317498277 1.6946115629
H -1.9452433507 1.067759808 -1.7761660831
H -1.4551589058 1.9829915293 -0.3504408235
H -2.9545796431 1.062070647 -0.3298303497
*
