! r2scan-3c def2/J RI DEFGRID2 scfconv6 printgap
%output
    printlevel normal
end
* xyz 0 1
C 2.3515383463 -0.2890183828 -0.0553991638
C 0.8495815953 -0.5429132168 0.0052319819
C 0.0642334931 0.7642685991 -0.0468486552
C -1.4253733338 0.6216634721 0.0082647275
C -2.1130460081 -0.5018926418 0.0941152182
H 2.6686247257 0.3278152335 0.7827376421
H 2.6150814678 0.2244552398 -0.977549277
H 2.8991842026 -1.2274853564 -0.0168849772
H 0.5558752823 -1.1757826339 -0.8345085964
H 0.6097536928 -1.0729868807 0.9290360654
H 0.3196817942 1.3016666303 -0.9659371232
H 0.3744217837 1.4041749719 0.785676004
H -1.9561388392 1.5658318473 -0.0292461501
H -3.1893992081 -0.4996043662 0.1279063136
H -1.6432006882 -1.4690074754 0.1348507727
*
