  9
        -10.57154897
 C         -1.3756184047       -0.5894333181        0.0000070025
 S          0.0000110209        0.5938677798       -0.0000014159
 C          1.3755916786       -0.5894519700        0.0000034442
 H         -1.3247396496       -1.2056098698        0.8936283506
 H         -1.3246644902       -1.2054922818       -0.8937020567
 H         -2.2922698722       -0.0096475572       -0.0000067310
 H          1.3246259251       -1.2055881704        0.8936086356
 H          2.2922586414       -0.0096818444        0.0001329134
 H          1.3247573759       -1.2055417644       -0.8937405650
