  9
  -10.5715489700000       0.109865884493003      !gc
 C         -1.3756184047       -0.5894333181        0.0000070025
 S          0.0000110209        0.5938677798       -0.0000014159
 C          1.3755916786       -0.5894519700        0.0000034442
 H         -1.3247396496       -1.2056098698        0.8936283506
 H         -1.3246644902       -1.2054922818       -0.8937020567
 H         -2.2922698722       -0.0096475572       -0.0000067310
 H          1.3246259251       -1.2055881704        0.8936086356
 H          2.2922586414       -0.0096818444        0.0001329134
 H          1.3247573759       -1.2055417644       -0.8937405650
  9
  -10.5715489700000       0.109865884493003      !mtd7
 C         -1.3756487758       -0.5894260887        0.0000064871
 S         -0.0000005317        0.5938653764       -0.0000019313
 C          1.3756545392       -0.5894606823        0.0000029288
 H         -1.3249107834       -1.2053773616       -0.8937911175
 H         -2.2922662015       -0.0096159877        0.0002265857
 H         -1.3245790931       -1.2057260837        0.8935568346
 H          2.2922644833       -0.0096479249       -0.0006489767
 H          1.3243149959       -1.2059527392       -0.8934426768
 H          1.3251248296       -1.2051472708        0.8940485761
  9
  -10.5715489700000       0.109865884493003      !mtd11
 C         -1.3755815145       -0.5894400531        0.0000054480
 S          0.0000042956        0.5938801885       -0.0000029705
 C          1.3755708173       -0.5894671578        0.0000018898
 H         -1.3246714988       -1.2055055683       -0.8937195659
 H         -2.2922298983       -0.0096940834        0.0000829664
 H         -1.3245666479       -1.2056086934        0.8936425918
 H          1.3246688081       -1.2054861022       -0.8937398482
 H          1.3245499790       -1.2056693966        0.8936352711
 H          2.2922400970       -0.0097310982        0.0001056296
  9
  -10.5715489600000       0.109864721903936      !mtd9
 C         -1.3755292818       -0.5894338655        0.0000043298
 S          0.0000100454        0.5938722870       -0.0000040885
 C          1.3755154006       -0.5894567589        0.0000007718
 H         -2.2921496059       -0.0096871397        0.0004065000
 H         -1.3243646579       -1.2057159571        0.8935286970
 H         -1.3248310144       -1.2053190359       -0.8938827318
 H          1.3241327510       -1.2059756619        0.8934236669
 H          2.2922367318       -0.0097642408        0.0005581904
 H          1.3248216852       -1.2051792305       -0.8939650690
  9
  -10.5715489600000       0.109864721903936      !mtd4
 C         -1.3756555681       -0.5893925847        0.0000023794
 S          0.0000042675        0.5938355936       -0.0000060387
 C          1.3756623251       -0.5894247103       -0.0000011789
 H         -1.3239780023       -1.2062605493        0.8931313272
 H         -1.3255426170       -1.2047498012       -0.8942432775
 H         -2.2923054770       -0.0096245350        0.0013043185
 H          2.2923087249       -0.0096691006        0.0000634585
 H          1.3247000752       -1.2055078450       -0.8937416773
 H          1.3246010308       -1.2055361193        0.8936636266
  9
  -10.5715489500000       0.109863559327378      !mtd7
 C         -1.3756117530       -0.5893360047       -0.0000015651
 S         -0.0000217187        0.5937933448       -0.0000099825
 C          1.3756700148       -0.5893977998       -0.0000051232
 H         -2.2921878079       -0.0094870342        0.0004278146
 H         -1.3245807748       -1.2057113970        0.8934975333
 H         -1.3251500679       -1.2053253793       -0.8937661322
 H          2.2922289802       -0.0094689487        0.0005993691
 H          1.3251110589       -1.2051938403       -0.8938506284
 H          1.3245751590       -1.2058124167        0.8934892793
  9
  -10.5715489400000       0.109862396762915      !mtd12
 C         -1.3756272348       -0.5895094001        0.0000070380
 S          0.0000404240        0.5939159757       -0.0000013811
 C          1.3755149593       -0.5894866607        0.0000034796
 H         -1.3246084610       -1.2058871906        0.8936359485
 H         -1.3246641850       -1.2052857547       -0.8938286464
 H         -2.2922625144       -0.0097382781        0.0002190394
 H          1.3251202978       -1.2049282172       -0.8941660199
 H          1.3243235377       -1.2062384156        0.8932832419
 H          2.2921434613       -0.0096966201        0.0007750322
  9
  -10.5715489400000       0.109862396762915      !mtd3
 C         -1.3755767062       -0.5894443551        0.0000085065
 S         -0.0000233965        0.5938943257        0.0000000880
 C          1.3756427353       -0.5895093416        0.0000049485
 H         -2.2923566085       -0.0096950898       -0.0003048415
 H         -1.3247766445       -1.2053715721        0.8936760045
 H         -1.3244191811       -1.2056823366       -0.8935838593
 H          1.3247820672       -1.2053339101       -0.8937865098
 H          1.3245134190       -1.2058104022        0.8934993135
 H          2.2922143009       -0.0096973536        0.0003367515
  9
  -10.5715489300000       0.109861234210961      !mtd3
 C         -1.3756246251       -0.5893204955        0.0000005904
 S         -0.0000406551        0.5937913244       -0.0000078269
 C          1.3757274043       -0.5894059153       -0.0000029676
 H         -1.3247559620       -1.2058778795       -0.8934497434
 H         -2.2922323921       -0.0094650923       -0.0002830049
 H         -1.3250255253       -1.2051571442        0.8938924410
 H          1.3238434647       -1.2064418444        0.8929127211
 H          2.2922400964       -0.0094697809        0.0016897507
 H          1.3259987012       -1.2046111187       -0.8944848732
  9
  -10.5693931600000       1.122331564895039E-002 !mtd5
 C         -1.3988410804       -0.5831944751       -0.0000274922
 S          0.0018775252        0.5866015735       -0.0000358673
 C          1.3935146027       -0.5806232049       -0.0000311182
 H         -1.9880201049       -0.4249450310       -0.8982115493
 H         -2.0078930626       -0.3976840328        0.8794586622
 H         -1.0106901403       -1.5947211410        0.0202060817
 H          1.3560166047       -1.1942767121        0.8957116477
 H          2.2986548598        0.0174147399       -0.0006309207
 H          1.3556850599       -1.1957791838       -0.8946945786
