! r2scan-3c def2/J RI DEFGRID2 scfconv6 printgap
%output
    printlevel normal
end
%cpcm
    smd true
    smdsolvent "water"
end
* xyz 0 1
C -2.0840284102 0.6222931176 -0.6679220418
C -1.3936925886 0.3202119829 0.6589191469
C 0.0366048559 -0.2315643559 0.5249193829
C 0.9630445543 0.7081566345 -0.2577654417
C 2.4240507842 0.2945379134 -0.1205410864
O 0.0470970304 -1.5401925587 -0.0179220568
H -3.0975954698 0.9672639287 -0.4796226652
H -1.5577898247 1.3995536497 -1.2152140533
H -2.1454322912 -0.2678401269 -1.2895136396
H -1.3499525635 1.2287062291 1.2612955475
H -1.9810356879 -0.418847013 1.2084926743
H 0.4424279031 -0.3639086125 1.5357373045
H 0.6829107152 0.6905438345 -1.3127716425
H 0.8287801469 1.7240959205 0.1156201135
H 2.5453377039 -0.747245425 -0.4086219071
H 3.0571482404 0.9096767912 -0.7547047054
H 2.7546088796 0.4024809402 0.9099597457
H -0.2832676063 -1.4966169118 -0.9260403155
*
