  24
        -28.54551427
 C          2.0297810550        1.9120028313       -0.3866513233
 C          2.2989565993        0.4159478742       -0.4912230312
 C          1.4468761870       -0.3928401455        0.4964945362
 H          1.6636301191       -0.0262619559        1.5065311992
 C          1.8139655743       -1.8778777154        0.4412093741
 C         -0.0261473388       -0.2003472132        0.2329462166
 C         -0.8471657658        0.3603033488        1.2028037432
 C         -2.1997367802        0.5419244569        0.9730924947
 C         -2.7544869666        0.1634811148       -0.2365642399
 C         -1.9470832781       -0.3975217609       -1.2113084369
 C         -0.5961199409       -0.5777184154       -0.9774457608
 H          2.2455763373        2.2697019202        0.6180612820
 H          2.6539387326        2.4616561435       -1.0876134524
 H          0.9870686432        2.1279429597       -0.6094281838
 H          2.0936639768        0.0815277287       -1.5097664282
 H          3.3542792926        0.2216331169       -0.2851470166
 H          2.8598145310       -2.0187702030        0.7059820826
 H          1.2007686763       -2.4446381754        1.1385995143
 H          1.6566381691       -2.2789932373       -0.5569218370
 H         -0.4219831066        0.6605411964        2.1506042651
 H         -2.8213265302        0.9806844475        1.7403829262
 H         -3.8096873704        0.3045614569       -0.4195009484
 H         -2.3724830352       -0.6959619239       -2.1588525449
 H          0.0190812495       -1.0162531042       -1.7495691769
