  23
        -37.40094401
 C          2.7173332339       -1.7666534129       -0.4304956363
 C          3.1246562294       -0.3398382180       -0.0946951112
 O          2.0665999357        0.5795047607       -0.3825323421
 C          1.0986368396        0.6973176593        0.5189224213
 O          1.0764471147        0.1459183783        1.5853250108
 C          0.0001614288        1.6154584236        0.0021955700
 C         -1.0995246166        0.7001801592       -0.5170405673
 O         -1.0798962329        0.1550227142       -1.5867395384
 O         -2.0651562127        0.5769998809        0.3861474915
 C         -3.1237083721       -0.3409759921        0.0957787702
 C         -2.7155625322       -1.7694064080        0.4235916651
 H          2.3796947135       -1.8248585403       -1.4623331956
 H          3.5654398908       -2.4311571927       -0.2929755477
 H          1.9093147861       -2.0862460932        0.2230861508
 H          3.9593574632       -0.0100256670       -0.7159165270
 H          3.3889013683       -0.2562105722        0.9645730572
 H         -0.3881951538        2.2181404608        0.8203868381
 H          0.3893483996        2.2199368704       -0.8142688638
 H         -3.9572668919       -0.0143853696        0.7202480270
 H         -3.3899896123       -0.2521186195       -0.9625611821
 H         -3.5633229155       -2.4335843797        0.2824226292
 H         -1.9074315509       -2.0848962034       -0.2318575591
 H         -2.3777577530       -1.8331657004        1.4550332601
