! r2scan-3c def2/J RI DEFGRID2 scfconv6 printgap
%output
    printlevel normal
end
%cpcm
    smd true
    smdsolvent "water"
end
* xyz 0 1
C -3.3383882049 0.0507600568 -0.6443816878
C -2.1721355783 0.2786803605 0.3104133977
C -0.9146229674 -0.4554383401 -0.151041838
C 0.2756003999 -0.2511047734 0.7908946515
C 1.4341079609 -1.1976919426 0.4634277053
C 2.1459127513 -0.5399463482 -0.7218063973
C 1.8936963316 0.9710212059 -0.5672097778
C 0.9325929862 1.1224941456 0.6218576383
H -3.0916380208 0.4128243233 -1.6400404735
H -3.5716357188 -1.0094691122 -0.7144412966
H -4.2253237783 0.5756697549 -0.2978498368
H -1.9714452481 1.3493810559 0.3813713608
H -2.4466287038 -0.0712497129 1.3085633985
H -1.1399137722 -1.5235119109 -0.2082293826
H -0.6493834488 -0.1190619069 -1.1541515278
H -0.0697335463 -0.3992156693 1.8185212508
H 2.108528022 -1.2498693614 1.3197621436
H 1.0971471286 -2.2076806555 0.2338332305
H 3.2092899704 -0.7751573552 -0.7280425633
H 1.7225395982 -0.9020766161 -1.6586265849
H 2.8209629518 1.5133091095 -0.3863515343
H 1.4495493423 1.3791234265 -1.4748733845
H 1.4931041469 1.3652477267 1.5257391907
H 0.2047650727 1.9146797645 0.4574650884
*
