  17
        -27.18779845
 C         -2.8115064100        1.0420546193        0.0000570409
 O         -2.2170529348       -0.2331016246       -0.0000392579
 C         -0.8590391022       -0.3165060608       -0.0000269975
 C         -0.3283034926       -1.6089379463       -0.0000061080
 C          1.0368734217       -1.7933023957        0.0000207393
 C          1.8981630398       -0.7077644400        0.0000260776
 C          1.3731069948        0.5757553552       -0.0000038092
 C         -0.0040752979        0.7755802436       -0.0000323622
 O          2.1660355013        1.6834307055       -0.0000048773
 H         -2.5380300633        1.6127482082       -0.8931675064
 H         -2.5378591818        1.6126905559        0.8932649737
 H         -3.8861844848        0.8663644883        0.0001535031
 H         -1.0086280362       -2.4446912898       -0.0000106610
 H          1.4421067076       -2.7939072165        0.0000353283
 H          2.9693989089       -0.8559910494        0.0000508383
 H         -0.3613208470        1.7918108668       -0.0000600964
 H          3.0931145493        1.4168656279        0.0000221278
