  17
  -27.1877984500000       0.123659521660932      !hor
 C         -2.8115064100        1.0420546193        0.0000570409
 O         -2.2170529348       -0.2331016246       -0.0000392579
 C         -0.8590391022       -0.3165060608       -0.0000269975
 C         -0.3283034926       -1.6089379463       -0.0000061080
 C          1.0368734217       -1.7933023957        0.0000207393
 C          1.8981630398       -0.7077644400        0.0000260776
 C          1.3731069948        0.5757553552       -0.0000038092
 C         -0.0040752979        0.7755802436       -0.0000323622
 O          2.1660355013        1.6834307055       -0.0000048773
 H         -2.5380300633        1.6127482082       -0.8931675064
 H         -2.5378591818        1.6126905559        0.8932649737
 H         -3.8861844848        0.8663644883        0.0001535031
 H         -1.0086280362       -2.4446912898       -0.0000106610
 H          1.4421067076       -2.7939072165        0.0000353283
 H          2.9693989089       -0.8559910494        0.0000508383
 H         -0.3613208470        1.7918108668       -0.0000600964
 H          3.0931145493        1.4168656279        0.0000221278
  17
  -27.1877984400000       0.123658213109533      !mtd2
 C         -2.8115562959        1.0420317694       -0.0002736985
 O         -2.2170284060       -0.2331427956        0.0002402502
 C         -0.8590165778       -0.3164781052        0.0001475807
 C         -0.3283107052       -1.6089336113       -0.0000517895
 C          1.0368455370       -1.7933131645       -0.0000713321
 C          1.8981104470       -0.7077321964       -0.0000579955
 C          1.3731191230        0.5757742908       -0.0000103282
 C         -0.0040672798        0.7756187970        0.0000914583
 O          2.1661061067        1.6834126721        0.0000371341
 H         -3.8862378312        0.8663137169       -0.0004888200
 H         -2.5377157317        1.6123717947       -0.8935920289
 H         -2.5382465381        1.6129037217        0.8928679902
 H         -1.0087990098       -2.4445422824       -0.0001686914
 H          1.4421759212       -2.7938512796       -0.0000700931
 H          2.9693229177       -0.8559622882       -0.0001114564
 H         -0.3614369122        1.7918178522        0.0001301316
 H          3.0931555476        1.4167252644       -0.0002757714
  17
  -27.1877983900000       0.123651670558379      !mtd1
 C         -2.8112937821        1.0421559796       -0.0001305288
 O         -2.2171046005       -0.2331245375       -0.0000978038
 C         -0.8590690191       -0.3166094553        0.0001084118
 C         -0.3283234148       -1.6090041886        0.0001851478
 C          1.0368873611       -1.7932818079       -0.0000518731
 C          1.8981624920       -0.7077348507       -0.0002400688
 C          1.3730366883        0.5757571616        0.0000462523
 C         -0.0041223742        0.7755239951        0.0001703533
 O          2.1659465940        1.6834584263        0.0000112088
 H         -2.5381749484        1.6123803696        0.8936256442
 H         -3.8860500931        0.8669302378       -0.0012497072
 H         -2.5363773244        1.6132635888       -0.8925758053
 H         -1.0086192578       -2.4447888637        0.0004327612
 H          1.4422774346       -2.7938110260       -0.0001286301
 H          2.9693939233       -0.8559800536       -0.0005321367
 H         -0.3613529446        1.7917587730        0.0002790503
 H          3.0930315357        1.4169253137        0.0004783899
  17
  -27.1876944300000       0.110770286784474      !hor
 C         -3.1762299836       -0.3262744378       -0.0002484630
 O         -2.0884316542        0.5653064343        0.0001774966
 C         -0.8264309140        0.0500887080        0.0001061297
 C         -0.5148601384       -1.3037646003        0.0000352210
 C          0.8149395612       -1.6963806570       -0.0000637860
 C          1.8370828586       -0.7716083677       -0.0000883270
 C          1.5258692002        0.5863583088        0.0000110274
 C          0.2020236044        0.9912236335        0.0001106696
 O          2.5480573450        1.4830765028       -0.0000072165
 H         -3.1775378396       -0.9588967816       -0.8937826796
 H         -4.0686580707        0.2977774568       -0.0004719628
 H         -3.1781127750       -0.9590691026        0.8931648572
 H         -1.2874751104       -2.0552601185        0.0000663450
 H          1.0511356559       -2.7499600977       -0.0001209013
 H          2.8719099130       -1.0714436038       -0.0001779250
 H         -0.0602498386        2.0396248261        0.0001858055
 H          2.1927207019        2.3801016323        0.0000723403
  17
  -27.1876944100000       0.110767942478166      !gc
 C         -3.1761300992       -0.3263379633        0.0000108790
 O         -2.0883797078        0.5653290931       -0.0000079822
 C         -0.8263920773        0.0500510965       -0.0000009669
 C         -0.5149082123       -1.3037717492        0.0000177051
 C          0.8149498453       -1.6964106931        0.0000259173
 C          1.8369631447       -0.7716015124        0.0000135235
 C          1.5257973432        0.5864225128       -0.0000102581
 C          0.2020266270        0.9913064544       -0.0000169970
 O          2.5480680977        1.4830620696       -0.0000248460
 H         -3.1776585519       -0.9590674616        0.8934972800
 H         -3.1776835787       -0.9590769020       -0.8934709045
 H         -4.0685937210        0.2975635443        0.0000208148
 H         -1.2874529918       -2.0553240754        0.0000250781
 H          1.0510756434       -2.7500078036        0.0000389799
 H          2.8718616062       -1.0712553299        0.0000189673
 H         -0.0605903440        2.0396162584       -0.0000345380
 H          2.1928234103        2.3801100044       -0.0000488868
  17
  -27.1876944000000       0.110766770344034      !mtd7
 C         -3.1762203044       -0.3262955648        0.0001753538
 O         -2.0884253248        0.5653305991       -0.0002516237
 C         -0.8264318768        0.0500803242       -0.0000324727
 C         -0.5148755107       -1.3037755768        0.0001594742
 C          0.8149316818       -1.6963740935        0.0000804268
 C          1.8370851834       -0.7715965993       -0.0000641687
 C          1.5258674683        0.5863794834        0.0000650969
 C          0.2020212292        0.9912192400        0.0000290270
 O          2.5480553563        1.4830600537       -0.0000561602
 H         -4.0686602061        0.2977065377       -0.0008939538
 H         -3.1781519993       -0.9579360772        0.8944104909
 H         -3.1773909952       -0.9599586408       -0.8926099298
 H         -1.2874251974       -2.0553401742        0.0003639276
 H          1.0511064977       -2.7499622938        0.0001371266
 H          2.8719073726       -1.0714347402       -0.0003003536
 H         -0.0602798553        2.0396149562       -0.0001169281
 H          2.1927525719        2.3801262096       -0.0010231490
  17
  -27.1869568500000       5.075221271937399E-002 !hor
 C         -3.1784184725       -0.3053134741        0.0000323710
 O         -2.0855930289        0.5799688285       -0.0000304978
 C         -0.8267667603        0.0607918230       -0.0000105773
 C         -0.5256822965       -1.2978595633        0.0000271694
 C          0.7985410315       -1.7012637085        0.0000311775
 C          1.8272729611       -0.7804230837        0.0000119730
 C          1.5272232102        0.5787264372       -0.0000125181
 C          0.2058647381        0.9945706750       -0.0000289591
 O          2.4990267112        1.5311435345       -0.0000225827
 H         -4.0671167459        0.3240099629       -0.0001036359
 H         -3.1846553411       -0.9380527197        0.8936369804
 H         -3.1845670539       -0.9383068025       -0.8933909110
 H         -1.3035019202       -2.0439982961        0.0000565116
 H          1.0288435375       -2.7563874848        0.0000538776
 H          2.8578308339       -1.1085021075        0.0000197439
 H         -0.0268858377        2.0461061727       -0.0000544136
 H          3.3664974393        1.1088291316        0.0000210197
  17
  -27.1869568000000       5.074952750389559E-002 !mtd5
 C         -3.1784465332       -0.3053037120       -0.0005405043
 O         -2.0855740466        0.5799239039        0.0006229067
 C         -0.8267517987        0.0608249254        0.0001854440
 C         -0.5256812570       -1.2978733305       -0.0000073203
 C          0.7984898137       -1.7012785016       -0.0001808296
 C          1.8272617147       -0.7804042163       -0.0000874962
 C          1.5272812070        0.5786795167       -0.0000722575
 C          0.2058659613        0.9945642509       -0.0000822807
 O          2.4990191321        1.5311785772        0.0002021086
 H         -3.1838625806       -0.9378316306       -0.8943484902
 H         -4.0670165684        0.3241361645       -0.0013369333
 H         -3.1855040908       -0.9383807586        0.8928102407
 H         -1.3036151837       -2.0438837638        0.0000327255
 H          1.0289902141       -2.7563564226       -0.0002069873
 H          2.8577824177       -1.1085974192        0.0000666011
 H         -0.0267849238        2.0461223336       -0.0001194530
 H          3.3664569848        1.1088866193       -0.0006363439
  17
  -27.1869567800000       5.074845345740802E-002 !gc
 C         -3.1782742450       -0.3054054001       -0.0001193717
 O         -2.0855101657        0.5799622057        0.0000968275
 C         -0.8267334248        0.0607521322        0.0000484757
 C         -0.5257788298       -1.2978984260        0.0000105977
 C          0.7984762123       -1.7012460177       -0.0000171483
 C          1.8271393167       -0.7803828851       -0.0000238854
 C          1.5272164919        0.5788339547        0.0000023191
 C          0.2058831640        0.9946282637        0.0000457684
 O          2.4990496840        1.5311318108       -0.0000227158
 H         -3.1845465999       -0.9383872180        0.8934039829
 H         -3.1844249229       -0.9380776489       -0.8938631281
 H         -4.0670758728        0.3236352767       -0.0000678912
 H         -1.3037197243       -2.0438850364        0.0000025552
 H          1.0289748801       -2.7563319866       -0.0000378530
 H          2.8576777663       -1.1085323038       -0.0000499534
 H         -0.0274141490        2.0460625286        0.0000711659
 H          3.3665534170        1.1088796515       -0.0000008222
  17
  -27.1869072800000       4.815863699778778E-002 !gc
 C         -2.8234044400        1.0187614321        0.0000336919
 O         -2.2157971174       -0.2487787251       -0.0000286012
 C         -0.8554783232       -0.3235306197       -0.0000133684
 C         -0.3165697449       -1.6100532521       -0.0000026992
 C          1.0518765374       -1.7851735699        0.0000146174
 C          1.9065422276       -0.6977670697        0.0000141731
 C          1.3732912358        0.5840822256       -0.0000018862
 C         -0.0047162591        0.7746756532       -0.0000092664
 O          2.2328484481        1.6397246222       -0.0000063021
 H         -2.5585934902        1.5932574898       -0.8940608169
 H         -2.5586656996        1.5931239743        0.8942363842
 H         -3.8961065440        0.8319112175       -0.0000266631
 H         -0.9924728566       -2.4493526656       -0.0000084634
 H          1.4614513057       -2.7837445209        0.0000238687
 H          2.9771291613       -0.8183330874        0.0000248487
 H         -0.3918990163        1.7842362418       -0.0000115277
 H          1.7375549795        2.4675655796       -0.0000437908
  17
  -27.1869072800000       4.815863699778778E-002 !hor
 C         -2.8234738194        1.0187267364       -0.0001076886
 O         -2.2157535611       -0.2487625019        0.0000739866
 C         -0.8554768677       -0.3234969174        0.0000447575
 C         -0.3165929864       -1.6100311302        0.0000114984
 C          1.0518548942       -1.7851793378       -0.0000357667
 C          1.9065596443       -0.6977886784       -0.0000448596
 C          1.3733382947        0.5840632206        0.0000065873
 C         -0.0046769173        0.7746581140        0.0000495344
 O          2.2328425117        1.6397608013        0.0000110961
 H         -3.8961701862        0.8317944079       -0.0002059332
 H         -2.5586812928        1.5931051510       -0.8942994950
 H         -2.5588787240        1.5932761676        0.8940332416
 H         -0.9924548878       -2.4493679640        0.0000200836
 H          1.4614001419       -2.7837592972       -0.0000678174
 H          2.9771297583       -0.8184841117       -0.0000869997
 H         -0.3918747817        1.7842301659        0.0000924468
 H          1.7374377795        2.4675478254        0.0000688040
  17
  -27.1869072700000       4.815812738822951E-002 !gc
 C         -2.8233388591        1.0187541595       -0.0000084195
 O         -2.2157699642       -0.2487848825        0.0000036807
 C         -0.8554840478       -0.3235312424        0.0000033364
 C         -0.3165669939       -1.6100621063        0.0000010692
 C          1.0518919920       -1.7851727357       -0.0000009173
 C          1.9065041374       -0.6977480451       -0.0000024009
 C          1.3732044716        0.5841043758        0.0000002615
 C         -0.0047500720        0.7746872141        0.0000053682
 O          2.2328678118        1.6396819762       -0.0000000755
 H         -2.5585954708        1.5932048353        0.8941722144
 H         -3.8960527069        0.8320626333       -0.0000507691
 H         -2.5585285541        1.5932219128       -0.8941574982
 H         -0.9924319994       -2.4493891334        0.0000008518
 H          1.4614184238       -2.7837667759       -0.0000014061
 H          2.9771066329       -0.8181800116       -0.0000043534
 H         -0.3920192248        1.7842206097        0.0000123076
 H          1.7377228921        2.4676260811       -0.0000082886
