! r2scan-3c def2/J RI DEFGRID2 scfconv6 printgap
%output
    printlevel normal
end
%cpcm
    smd true
    smdsolvent "water"
end
* xyz 0 1
C -1.4486161979 0.0758227491 0.6263052924
C 0.0646951572 0.3112518108 0.5460010061
C 0.795200423 -0.9442766946 0.0595897405
O 2.167219375 -0.624521571 -0.0525819616
O 0.2735676464 1.38948629 -0.3427987829
O -1.9980909277 -0.23974267 -0.6285881724
H -1.9199621396 0.9785601628 1.0343745164
H -1.6624141173 -0.769326169 1.2818646586
H 0.4419803847 0.5755343054 1.5454180099
H 0.3810282328 -1.2432378928 -0.9106292651
H 0.6355685899 -1.7514762875 0.7833820733
H 2.651887004 -1.3934079805 -0.3798031961
H 1.2206033773 1.4292878282 -0.5428779767
H -1.7605037339 0.4767117472 -1.2373154973
*
