! pbe def2-sv(p) def2/J RI DEFGRID1 loosescf d4 GCP(DFT/SV(P)) printgap
%output
    printlevel normal
end
* xyz 0 1
C 1.544994208 0.263359225 -1.1710406609
C 1.1106046296 -0.2279061805 0.2057718264
H 0.9347495078 -1.313220884 0.1614442621
C -0.1348435812 0.4779857442 0.7641801208
C -1.5074083216 0.1355596999 0.1594644137
C -1.7483698261 0.7580098524 -1.2145532207
C -1.7661013119 -1.3694527652 0.1150264444
O 2.2196712876 0.0088760218 1.0699054511
H 1.5504386449 1.3493511585 -1.1981395187
H 2.5557431637 -0.0898860342 -1.3610571699
H 0.8900469763 -0.1164322169 -1.946175202
H -0.1857913289 0.2317081227 1.8296317858
H 0.0272859355 1.5560979133 0.6913088278
H -2.2419347937 0.5784927447 0.8439193557
H -1.1748974734 0.2522573068 -1.9849133794
H -1.4765940706 1.8104016382 -1.2142164194
H -2.8016359879 0.6768194729 -1.4744070445
H -1.5739024729 -1.8233137908 1.0844135755
H -2.8029592096 -1.5594174934 -0.152066469
H -1.1338571987 -1.8503174105 -0.6271577882
H 2.0037954637 -0.2909828775 1.9626749363
*
