  14
        -18.85297125
 C          1.4459093080       -0.7306765983        0.2273142091
 C          1.4458145798        0.7307411639       -0.2273907870
 C          0.0447862447        1.2195581444        0.1283433055
 C         -0.8444449628       -0.0000081194       -0.0000231970
 O         -2.0457335305       -0.0000224221       -0.0000265850
 C          0.0448428162       -1.2195927650       -0.1282589964
 H          1.5946609089       -0.7827328599        1.3071878679
 H          2.2286276386       -1.3146383249       -0.2539852504
 H          2.2284902948        1.3147501336        0.2540355538
 H          1.5946119496        0.7828965233       -1.3072732337
 H         -0.0042595698        1.5494863528        1.1690454226
 H         -0.3146833456        2.0378250412       -0.4939829438
 H         -0.3144308171       -2.0376184008        0.4944412108
 H         -0.0042788623       -1.5498726299       -1.1688623131
