  14
  -18.8529712500000       0.500010581948349      !md1
 C          1.4459093080       -0.7306765983        0.2273142091
 C          1.4458145798        0.7307411639       -0.2273907870
 C          0.0447862447        1.2195581444        0.1283433055
 C         -0.8444449628       -0.0000081194       -0.0000231970
 O         -2.0457335305       -0.0000224221       -0.0000265850
 C          0.0448428162       -1.2195927650       -0.1282589964
 H          1.5946609089       -0.7827328599        1.3071878679
 H          2.2286276386       -1.3146383249       -0.2539852504
 H          2.2284902948        1.3147501336        0.2540355538
 H          1.5946119496        0.7828965233       -1.3072732337
 H         -0.0042595698        1.5494863528        1.1690454226
 H         -0.3146833456        2.0378250412       -0.4939829438
 H         -0.3144308171       -2.0376184008        0.4944412108
 H         -0.0042788623       -1.5498726299       -1.1688623131
  14
  -18.8529712100000       0.499989418051651      !mtd10
 C          1.4458823633       -0.7327495013       -0.2201470956
 C          1.4458032078        0.7329461111        0.2205358552
 C          0.0449378898        1.2181223695       -0.1407873884
 C         -0.8444722929       -0.0000351727       -0.0001218684
 O         -2.0458325693       -0.0000073286        0.0003075442
 C          0.0448580952       -1.2182667200        0.1401702260
 H          2.2284671540       -1.3120849331        0.2668389968
 H          1.5947972009       -0.7951738159       -1.2993809967
 H          1.5938295622        0.7954659112        1.2999313484
 H          2.2287400161        1.3123171655       -0.2659367531
 H         -0.3146622330        2.0429498631        0.4725355537
 H         -0.0034557740        1.5369378959       -1.1849502789
 H         -0.0041622384       -1.5377479026        1.1842155812
 H         -0.3144502556       -2.0427514699       -0.4739612757
