  17
        -25.85360719
 C         -1.2117527899        1.6871265212       -0.5225562164
 O         -0.8931637155        0.9192866742        0.6333822457
 C          0.0965217224       -0.0178595445        0.4382724258
 O          1.2388959470        0.5891046219       -0.0482693801
 C          2.3774030075       -0.2467088894       -0.0661614147
 O         -0.2806512644       -1.0339499831       -0.4512519921
 C         -1.3191662646       -1.8556576075        0.0339467434
 H         -1.4201664570        1.0329965396       -1.3723464128
 H         -0.3881420223        2.3575041354       -0.7731771606
 H         -2.0985089713        2.2582054891       -0.2580556785
 H          0.2737348988       -0.4597860244        1.4457200660
 H          3.1916179551        0.3714281371       -0.4366520053
 H          2.2247201491       -1.1021134899       -0.7283703213
 H          2.6097741500       -0.6045321124        0.9434756100
 H         -1.5283948048       -2.5730474356       -0.7560588153
 H         -2.2155109414       -1.2697905854        0.2560477410
 H         -1.0030257242       -2.3809589150        0.9428055724
  17
        -25.85209116
 C         -1.7788639566        1.6017970232        0.3501758755
 O         -0.6782455726        1.1319610433       -0.4011961317
 C          0.1421586458        0.2650099683        0.2984873198
 O          1.2902035575        0.1466118901       -0.4644954587
 C          2.3629942193       -0.4706043220        0.2173062018
 O         -0.4631997269       -0.9617655564        0.5693472271
 C         -0.8600883970       -1.6817244928       -0.5906943947
 H         -2.3525829082        2.2308379366       -0.3260228732
 H         -1.4381863085        2.1903042108        1.2096028203
 H         -2.3981459764        0.7742975111        0.7092055071
 H          0.3759211532        0.6671025826        1.3105825371
 H          3.1738842467       -0.5366821451       -0.5039298758
 H          2.0896103376       -1.4705962942        0.5672341472
 H          2.6751389809        0.1341035972        1.0763243465
 H          0.0032679658       -1.9053055222       -1.2216972022
 H         -1.5861087918       -1.1088242857       -1.1722357620
 H         -1.3097172602       -2.6017137578       -0.2253073672
  17
        -25.85090718
 C         -1.1551764899        1.5508080540       -0.5577261548
 O         -0.4350977070        1.1950679107        0.6114869928
 C          0.0820098295       -0.0999249461        0.6327491789
 O          1.0870382059       -0.2823401654       -0.3124450510
 C          2.2552660021        0.4648850883       -0.0483254775
 O         -0.8919020583       -1.0741554599        0.4907862287
 C         -0.9602476494       -1.7716583371       -0.7438786211
 H         -2.0913510467        0.9900019963       -0.6215877506
 H         -0.5548570714        1.3784745171       -1.4562453676
 H         -1.3709110111        2.6123012816       -0.4570404008
 H          0.4866055550       -0.1877537480        1.6602709558
 H          2.9304866966        0.2656730597       -0.8773686061
 H          2.7126381387        0.1440441980        0.8938059073
 H          2.0343376108        1.5342772458        0.0080237839
 H         -1.0713998892       -1.0986278411       -1.5959623603
 H         -1.8400533044       -2.4057529043       -0.6541024484
 H         -0.0701218350       -2.3874715587       -0.8909782997
  17
        -25.85072386
 C         -0.8596176641        2.1411902450       -0.2263292969
 O         -0.8674207226        0.7346359783       -0.3446722217
 C         -0.1247090116        0.0849362323        0.6409933880
 O          1.2457112142        0.2991328515        0.4896498401
 C          1.8267943578       -0.0721075049       -0.7510833014
 O         -0.5131518725       -1.2357913916        0.7354816471
 C         -0.7196646431       -1.9711916684       -0.4645624296
 H         -1.4296508171        2.5159124711       -1.0736437889
 H          0.1606398458        2.5337667530       -0.2581877397
 H         -1.3341016589        2.4513567726        0.7105314200
 H         -0.3323021023        0.5104589143        1.6397383540
 H          1.1357579334        0.1083729764       -1.5777506594
 H          2.1298647860       -1.1225808536       -0.7413000338
 H          2.7102905999        0.5546076319       -0.8688820109
 H         -1.3852068484       -2.7875304336       -0.1880241870
 H          0.2170764895       -2.3838126287       -0.8483401317
 H         -1.1950055170       -1.3523731872       -1.2253640562
  17
        -25.85066232
 C         -0.9036946448        1.6283894938       -0.7183585737
 O         -0.8850582437        0.9383348213        0.5212825451
 C          0.0321384550       -0.1061217706        0.6421744427
 O          1.3577437005        0.2834008653        0.5927269612
 C          2.0410477862        0.2203543216       -0.6523951164
 O         -0.2102420197       -1.1247314655       -0.2765077513
 C         -1.4074464268       -1.8324829722       -0.0337267213
 H         -1.8577967327        2.1521586543       -0.7518363662
 H         -0.8369135298        0.9296866231       -1.5565540973
 H         -0.0894845790        2.3564043045       -0.7708719984
 H         -0.1354943641       -0.4583787753        1.6775334278
 H          3.0902249867        0.3582146799       -0.3977385248
 H          1.7255983943        1.0108922724       -1.3372702941
 H          1.8987029990       -0.7515882359       -1.1259654105
 H         -1.4952966466       -2.5565294371       -0.8407488457
 H         -2.2698795740       -1.1602188043       -0.0372106927
 H         -1.3600132301       -2.3496260373        0.9304548568
  17
        -25.84907693
 C         -1.0294705700        2.1051015910        0.2350318719
 O         -1.0604097977        0.7730432831       -0.2338474963
 C          0.0050631541       -0.0020584945        0.1882684882
 O          1.1864940830        0.5299793557       -0.2968985249
 C          2.3467784419       -0.1581662352        0.1217722538
 O         -0.1479044494       -1.2949881078       -0.2799243128
 C         -1.3023234832       -1.9522593013        0.2001398062
 H         -0.1612035235        2.6382127580       -0.1574843785
 H         -1.0043254255        2.1268384493        1.3312714653
 H         -1.9464015109        2.5657163978       -0.1245108463
 H          0.0355282090       -0.0137830874        1.3181352388
 H          3.1850613459        0.4027841714       -0.2842203731
 H          2.3560371282       -1.1800830215       -0.2626672610
 H          2.4067285400       -0.1811326015        1.2166472295
 H         -2.2095461152       -1.4520782386       -0.1447672691
 H         -1.2992487734       -1.9842215323        1.2964172853
 H         -1.2551603872       -2.9618179234       -0.2008336283
  17
        -25.84852144
 C         -0.8474882328        2.1701791479       -0.2008712361
 O         -0.7402526552        0.7823797073       -0.4305447742
 C         -0.1630496490        0.0653692868        0.6150055280
 O          1.2345775527        0.0578373565        0.5547770792
 C          1.8435746251        0.1252318857       -0.7261241498
 O         -0.7281196450       -1.1923161845        0.6989785500
 C         -0.6206504903       -2.0375763947       -0.4369728756
 H          0.1297982991        2.6214236035       -0.0040770873
 H         -1.5108479902        2.3725871749        0.6463967716
 H         -1.2712999794        2.5912215366       -1.1102516799
 H         -0.4012298185        0.5200405672        1.5929628292
 H          1.3595691201       -0.5234071500       -1.4557970351
 H          2.8729017589       -0.1933751440       -0.5712441078
 H          1.8348684890        1.1511539685       -1.1080389022
 H         -1.3132391852       -2.8563762228       -0.2509016883
 H          0.3928692262       -2.4369587173       -0.5349521513
 H         -0.9131097370       -1.5086646915       -1.3464606363
