  16
        -23.12411805
 C         -1.8545445738       -1.4089212108       -0.0000040708
 C         -0.5296011127       -0.7133528412        0.0000060403
 C          0.6692881120       -1.4054754889        0.0000053368
 C          1.8857796910       -0.7418718435       -0.0000006057
 C          1.9132080484        0.6397299213       -0.0000029445
 C          0.7265860000        1.3525862397       -0.0000008142
 C         -0.4895864209        0.6855050384       -0.0000000984
 O         -1.6768363710        1.3585764636        0.0000013851
 H         -1.7272955025       -2.4880183914        0.0003518285
 H         -2.4301119461       -1.1153306617        0.8766681006
 H         -2.4298010600       -1.1158929282       -0.8770725136
 H          0.6490126921       -2.4858234978        0.0000067313
 H          2.8075426480       -1.3036431379       -0.0000087552
 H          2.8546160144        1.1685181131       -0.0000115450
 H          0.7410836483        2.4353651052       -0.0000017979
 H         -1.5075244404        2.3080437229        0.0000120788
