  16
  -23.1241180500000       0.209925074677580      !hor
 C         -1.8545445738       -1.4089212108       -0.0000040708
 C         -0.5296011127       -0.7133528412        0.0000060403
 C          0.6692881120       -1.4054754889        0.0000053368
 C          1.8857796910       -0.7418718435       -0.0000006057
 C          1.9132080484        0.6397299213       -0.0000029445
 C          0.7265860000        1.3525862397       -0.0000008142
 C         -0.4895864209        0.6855050384       -0.0000000984
 O         -1.6768363710        1.3585764636        0.0000013851
 H         -1.7272955025       -2.4880183914        0.0003518285
 H         -2.4301119461       -1.1153306617        0.8766681006
 H         -2.4298010600       -1.1158929282       -0.8770725136
 H          0.6490126921       -2.4858234978        0.0000067313
 H          2.8075426480       -1.3036431379       -0.0000087552
 H          2.8546160144        1.1685181131       -0.0000115450
 H          0.7410836483        2.4353651052       -0.0000017979
 H         -1.5075244404        2.3080437229        0.0000120788
  16
  -23.1241180200000       0.209918410534665      !mtd12
 C         -1.8545483771       -1.4088973071        0.0000813379
 C         -0.5295653845       -0.7133538506        0.0000008296
 C          0.6693029009       -1.4054656228       -0.0000554676
 C          1.8858092287       -0.7418737883       -0.0000520214
 C          1.9132304141        0.6397113006        0.0000435899
 C          0.7265805639        1.3525394498        0.0000606254
 C         -0.4895910757        0.6855237213        0.0000331872
 O         -1.6768887266        1.3585826030       -0.0001037217
 H         -2.4293612295       -1.1169395631       -0.8776872679
 H         -1.7273662687       -2.4880184782        0.0018196502
 H         -2.4306038927       -1.1141838417        0.8760808888
 H          0.6490935278       -2.4858228011        0.0001897605
 H          2.8075039684       -1.3037463638        0.0002138607
 H          2.8545715336        1.1686072083        0.0004476103
 H          0.7411129628        2.4353260167        0.0001268228
 H         -1.5076524084        2.3080883153       -0.0008805004
  16
  -23.1241179800000       0.209909525339599      !md4
 C         -1.8545536449       -1.4089157793       -0.0000907645
 C         -0.5296052560       -0.7133402102        0.0001446538
 C          0.6692877978       -1.4054626539        0.0000726041
 C          1.8857902651       -0.7418747438       -0.0000818662
 C          1.9132133099        0.6397298934       -0.0000199443
 C          0.7265874555        1.3525733543        0.0000303241
 C         -0.4895763369        0.6855252180        0.0000219365
 O         -1.6768443925        1.3585504994       -0.0000256473
 H         -2.4334587281       -1.1091547299        0.8722403291
 H         -2.4264201460       -1.1220886052       -0.8814532686
 H         -1.7273359015       -2.4879637016        0.0080881317
 H          0.6490794569       -2.4858182006        0.0001176019
 H          2.8074830332       -1.3037507086       -0.0000856023
 H          2.8545668321        1.1686102510        0.0001173964
 H          0.7411337790        2.4353521308        0.0001625135
 H         -1.5075639453        2.3080238159        0.0003031005
  16
  -23.1236160800000       0.123416969129978      !hor
 C         -1.8382918718       -1.4449841680        0.0000202922
 C         -0.5262582761       -0.7093663326        0.0000098058
 C          0.6789482317       -1.3955285995       -0.0000115804
 C          1.8894439456       -0.7255597202       -0.0000136979
 C          1.9070432255        0.6582923914        0.0000119654
 C          0.7195062298        1.3634292592        0.0000186180
 C         -0.4954388299        0.6885053259        0.0000040001
 O         -1.6337183807        1.4387193717       -0.0000245351
 H         -2.4267105020       -1.2004165612       -0.8866979311
 H         -1.6652107113       -2.5177395533        0.0004205015
 H         -2.4270577661       -1.1998176317        0.8863456743
 H          0.6654811634       -2.4762786400       -0.0000112582
 H          2.8139465792       -1.2827513750       -0.0000400925
 H          2.8459289460        1.1911872132       -0.0000036732
 H          0.7055516043        2.4418771759        0.0000131055
 H         -2.4035876889        0.8581200859       -0.0001064187
  16
  -23.1236160700000       0.123415663144779      !gc
 C         -1.8382866105       -1.4449581511        0.0000366264
 C         -0.5262632576       -0.7093509950       -0.0000504687
 C          0.6789396212       -1.3955102934       -0.0000412114
 C          1.8894486944       -0.7255690889        0.0000340994
 C          1.9070714400        0.6582794184        0.0000099852
 C          0.7195264544        1.3634228762       -0.0000209326
 C         -0.4954158010        0.6885666401       -0.0000143162
 O         -1.6337768988        1.4386537189        0.0000069154
 H         -1.6652171814       -2.5177250264       -0.0007106479
 H         -2.4265434335       -1.2006386136        0.8869255598
 H         -2.4272294577       -1.1995308756       -0.8860980098
 H          0.6654966780       -2.4762643916        0.0002181666
 H          2.8139195404       -1.2828196335        0.0001646297
 H          2.8459303301        1.1912124119       -0.0001439067
 H          0.7056939777        2.4418850130       -0.0001623030
 H         -2.4035889016        0.8580046699        0.0002475089
  16
  -23.1236160600000       0.123414357173400      !gc
 C         -1.8382864043       -1.4449585498        0.0001234449
 C         -0.5262638957       -0.7093510319        0.0000038716
 C          0.6789396425       -1.3955099992       -0.0000973908
 C          1.8894478800       -0.7255693238       -0.0000395802
 C          1.9070716414        0.6582799911        0.0000710318
 C          0.7195272171        1.3634228149        0.0000760868
 C         -0.4954153856        0.6885668936        0.0000023274
 O         -1.6337768178        1.4386532111       -0.0001081270
 H         -2.4275350649       -1.1989174469        0.8858720968
 H         -2.4262364682       -1.2012513322       -0.8871495193
 H         -1.6652188488       -2.5177256906        0.0016655823
 H          0.6654960229       -2.4762643033        0.0001430239
 H          2.8139191689       -1.2828194131        0.0000192834
 H          2.8459309291        1.1912120647       -0.0000258960
 H          0.7056931415        2.4418853053       -0.0000125145
 H         -2.4035904567        0.8580077968       -0.0004615230
