  16
        -23.12411805
 C         -1.8545445738       -1.4089212108       -0.0000040708
 C         -0.5296011127       -0.7133528412        0.0000060403
 C          0.6692881120       -1.4054754889        0.0000053368
 C          1.8857796910       -0.7418718435       -0.0000006057
 C          1.9132080484        0.6397299213       -0.0000029445
 C          0.7265860000        1.3525862397       -0.0000008142
 C         -0.4895864209        0.6855050384       -0.0000000984
 O         -1.6768363710        1.3585764636        0.0000013851
 H         -1.7272955025       -2.4880183914        0.0003518285
 H         -2.4301119461       -1.1153306617        0.8766681006
 H         -2.4298010600       -1.1158929282       -0.8770725136
 H          0.6490126921       -2.4858234978        0.0000067313
 H          2.8075426480       -1.3036431379       -0.0000087552
 H          2.8546160144        1.1685181131       -0.0000115450
 H          0.7410836483        2.4353651052       -0.0000017979
 H         -1.5075244404        2.3080437229        0.0000120788
  16
        -23.12361608
 C         -1.8382918718       -1.4449841680        0.0000202922
 C         -0.5262582761       -0.7093663326        0.0000098058
 C          0.6789482317       -1.3955285995       -0.0000115804
 C          1.8894439456       -0.7255597202       -0.0000136979
 C          1.9070432255        0.6582923914        0.0000119654
 C          0.7195062298        1.3634292592        0.0000186180
 C         -0.4954388299        0.6885053259        0.0000040001
 O         -1.6337183807        1.4387193717       -0.0000245351
 H         -2.4267105020       -1.2004165612       -0.8866979311
 H         -1.6652107113       -2.5177395533        0.0004205015
 H         -2.4270577661       -1.1998176317        0.8863456743
 H          0.6654811634       -2.4762786400       -0.0000112582
 H          2.8139465792       -1.2827513750       -0.0000400925
 H          2.8459289460        1.1911872132       -0.0000036732
 H          0.7055516043        2.4418771759        0.0000131055
 H         -2.4035876889        0.8581200859       -0.0001064187
