! r2scan-3c def2/J RI DEFGRID2 scfconv6 printgap
%output
    printlevel normal
end
* xyz 0 1
C -3.0116377949 0.7376355948 0.16767943
C -1.808904804 -0.1800138547 0.36868043
C -1.9816211106 -1.4867191087 -0.4014967644
C -0.5358032794 0.5357431254 -0.0772169387
O 0.5962304557 -0.260571266 0.2962540143
C 1.800043352 0.181932129 -0.0425988125
O 1.9783509093 1.2244296362 -0.6404420514
C 2.8829091699 -0.7608510715 0.387798724
H -3.9198305033 0.2355511989 0.4881942752
H -3.1141364505 1.0009853732 -0.8822898387
H -2.9002644033 1.6528680786 0.7432178034
H -1.7017202986 -0.4090913849 1.4333610847
H -2.1118967539 -1.2851278861 -1.4624019878
H -2.8546338064 -2.0235272566 -0.0410876155
H -1.1063964553 -2.1177057827 -0.2719519995
H -0.5194296463 0.6832653523 -1.1625768559
H -0.4406487264 1.5176742708 0.3987840388
H 2.5202924338 -1.402711597 1.1831992145
H 3.7535199381 -0.1943466384 0.703524825
H 3.1656791222 -1.3716767428 -0.4669925365
*
