  23
        -23.16071733
 C         -1.6299487895       -1.0143519459        0.9644205657
 C         -1.2787921399       -0.1382727843       -0.2356743230
 C         -2.4346381657        0.8161777333       -0.5350521984
 C          0.0001078776        0.6732994954        0.0010970579
 C          1.2791259235       -0.1386643908        0.2359905570
 C          1.6287114657       -1.0143822734       -0.9648368440
 C          2.4354759389        0.8155478568        0.5341898612
 H         -1.7103552422       -0.4086702474        1.8649184550
 H         -2.5834496320       -1.5123434789        0.8009563801
 H         -0.8753914549       -1.7790299351        1.1284690601
 H         -1.1373257860       -0.7816670377       -1.1097476478
 H         -3.3470507467        0.2605172519       -0.7403085094
 H         -2.6164759614        1.4703398085        0.3153901261
 H         -2.2095027171        1.4350373863       -1.4009322282
 H         -0.1616961497        1.3200422955        0.8677906963
 H          0.1618962549        1.3218156588       -0.8642677098
 H          1.1386417959       -0.7823519369        1.1100178550
 H          1.7069077033       -0.4085436158       -1.8654225252
 H          2.5829146334       -1.5116413191       -0.8032291928
 H          0.8744708386       -1.7796714797       -1.1274954330
 H          2.2119859645        1.4334960259        1.4011449449
 H          3.3483548925        0.2597679688        0.7370480788
 H          2.6155737786        1.4706046261       -0.3159372704
  23
        -23.16070103
 C         -2.4244919551       -0.7969767395       -0.5890010079
 C         -1.2789545355        0.1508074453       -0.2341925078
 C         -1.6562338474        0.9803742691        0.9908685577
 C         -0.0001542076       -0.6624238403       -0.0023614122
 C          1.2785514071        0.1495738455        0.2342016050
 C          2.4231885238       -0.7996016066        0.5882050300
 C          1.6580563991        0.9825134018       -0.9878514076
 H         -2.1852848518       -1.3751489371       -1.4788768378
 H         -2.6112028469       -1.4894505517        0.2294576080
 H         -3.3384845654       -0.2387809433       -0.7799603550
 H         -1.1253743006        0.8268839123       -1.0810817936
 H         -0.9049370065        1.7368515145        1.2015876247
 H         -2.6054583932        1.4860531639        0.8260239979
 H         -1.7570695049        0.3402004095        1.8651684676
 H          0.1619716027       -1.3075909109       -0.8700967816
 H         -0.1622573370       -1.3124773269        0.8617020734
 H          1.1237300969        0.8231822459        1.0827708272
 H          2.1821645140       -1.3804594133        1.4758801643
 H          2.6112182413       -1.4896165446       -0.2320005609
 H          3.3369268072       -0.2422220447        0.7826142778
 H          1.7646082583        0.3441232092       -1.8627511405
 H          0.9049889017        1.7365092054       -1.2004957148
 H          2.6049157935        1.4910964618       -0.8183790457
  23
        -23.16066655
 C         -1.6645646809       -0.9476719683        1.0469369240
 C         -1.2823457219       -0.1612676928       -0.2047806873
 C         -2.4238149906        0.7783021933       -0.5926707672
 C          0.0000661579        0.6528267178        0.0035516111
 C          1.2833849806       -0.1612772182        0.2059961637
 C          1.6609677696       -0.9468224454       -1.0476865197
 C          2.4263848949        0.7784470939        0.5890937309
 H         -1.7828886050       -0.2755418963        1.8946549170
 H         -2.6058493441       -1.4707701253        0.8914181896
 H         -0.9069927086       -1.6861188450        1.2955605805
 H         -1.1305198881       -0.8664537569       -1.0278354444
 H         -2.6006107833        1.5064511141        0.1965109812
 H         -2.1865664406        1.3161663386       -1.5080752880
 H         -3.3425490605        0.2186100134       -0.7540276858
 H         -0.1442015246        1.2971493846        0.8749324040
 H          0.1437701059        1.3036722435       -0.8630509931
 H          1.1350302699       -0.8668877600        1.0294017399
 H          1.7729024527       -0.2743557535       -1.8959851299
 H          2.6044901609       -1.4672341207       -0.8970389332
 H          0.9043221613       -1.6875508653       -1.2923366796
 H          3.3444066363        0.2182505754        0.7529233355
 H          2.6040468984        1.5021194254       -0.2039686327
 H          2.1902752738        1.3214333400        1.5016677933
  23
        -23.16062994
 C         -1.6781649334       -0.9124304223        1.0855408757
 C         -1.2837190790       -0.1713871218       -0.1898934324
 C         -2.4198908286        0.7564569087       -0.6189771314
 C          0.0001044348        0.6447034360        0.0019803342
 C          1.2842712820       -0.1716566276        0.1905336459
 C          1.6760505325       -0.9121420351       -1.0861036664
 C          2.4213809217        0.7562006458        0.6171597887
 H         -1.8222886665       -0.2082978741        1.9027594814
 H         -2.6084361591       -1.4560461481        0.9344742825
 H         -0.9144724550       -1.6280675973        1.3784269845
 H         -1.1270692496       -0.9059035136       -0.9860345784
 H         -2.5985414900        1.5138175577        0.1417823984
 H         -2.1759643261        1.2592261655       -1.5523193703
 H         -3.3396406858        0.1939989169       -0.7643839932
 H         -0.1349524453        1.2906090017        0.8735908274
 H          0.1350562431        1.2940370876       -0.8670943030
 H          1.1295324929       -0.9065440462        0.9866962320
 H          0.9145842081       -1.6317908734       -1.3747963298
 H          1.8130322524       -0.2082185031       -1.9045882287
 H          2.6095786927       -1.4509416286       -0.9388806414
 H          3.3412424778        0.1936955627        0.7614184050
 H          2.5988068869        1.5129333949       -0.1444762422
 H          2.1791469513        1.2597024420        1.5505600935
  23
        -23.16058426
 C         -2.1960407427        0.7154321906        1.2031472347
 C         -1.2100225157       -0.1867781128        0.4620121597
 C         -1.9117876896       -0.8562810245       -0.7174395464
 C          0.0003971264        0.6360818547        0.0042345005
 C          1.2098417258       -0.1816278602       -0.4651677474
 C          2.1980889627        0.7302630821       -1.1913381811
 C          1.9095064041       -0.8704619062        0.7043625356
 H         -2.5367943171        1.5186152372        0.5527562473
 H         -3.0646034412        0.1472733511        1.5291136124
 H         -1.7293835753        1.1589267096        2.0800355414
 H         -0.8743121026       -0.9648880423        1.1547564761
 H         -2.7719438971       -1.4262274658       -0.3725178497
 H         -2.2599183216       -0.1062821105       -1.4250760495
 H         -1.2441948789       -1.5369398292       -1.2392083214
 H          0.3230160245        1.2776221930        0.8283011807
 H         -0.3214695182        1.2895669578       -0.8106921550
 H          0.8734307275       -0.9483457620       -1.1701849317
 H          1.7321951049        1.1903987672       -2.0600165997
 H          2.5418475962        1.5209435644       -0.5273554303
 H          3.0646335201        0.1651592638       -1.5278186347
 H          1.2409734052       -1.5594414318        1.2138609076
 H          2.7701290804       -1.4348565245        0.3515811575
 H          2.2565939517       -0.1321753316        1.4247176626
  23
        -23.16054748
 C         -1.7046067113       -0.8234940358        1.1721339941
 C         -1.2841675609       -0.1931182245       -0.1537222755
 C         -2.4104434304        0.6939061844       -0.6825047435
 C          0.0001087830        0.6310291294        0.0007760261
 C          1.2843307047       -0.1934403902        0.1539113283
 C          1.7035846737       -0.8234838492       -1.1724777207
 C          2.4112119692        0.6932626969        0.6819602076
 H         -0.9277916511       -1.4760809634        1.5621222066
 H         -1.9057920003       -0.0499913019        1.9108540233
 H         -2.6083833732       -1.4149296920        1.0416258619
 H         -1.1112721104       -0.9938343567       -0.8798689664
 H         -3.3313984330        0.1238142656       -0.7841338891
 H         -2.5933588094        1.5208592480        0.0008124579
 H         -2.1535149348        1.1042460443       -1.6566695099
 H         -0.1132406232        1.2777814676        0.8744285743
 H          0.1135350887        1.2792192403       -0.8717959897
 H          1.1118893699       -0.9943429484        0.8799805737
 H          2.6083744096       -1.4136425761       -1.0432114690
 H          0.9271141784       -1.4772551502       -1.5611877222
 H          1.9025801332       -0.0498377939       -1.9116509010
 H          2.5940075224        1.5200737062       -0.0015674013
 H          2.1549906032        1.1038213869        1.6562194784
 H          3.3320410253        0.1228860009        0.7831272624
  23
        -23.15876955
 C         -2.1865408244       -0.4302252518        1.3161129125
 C         -1.2298767315       -0.3618568793        0.1258146720
 C         -1.9549542700        0.2451206020       -1.0743814902
 C          0.0345137364        0.4393061133        0.4885774995
 C          1.3505557444       -0.2131329605        0.0484963875
 C          1.4720678804       -0.3019462480       -1.4703839207
 C          2.5313268797        0.5734769153        0.6162535996
 H         -1.7116316679       -0.9169755614        2.1652277730
 H         -2.4892218559        0.5709283288        1.6167386947
 H         -3.0804389630       -0.9936988354        1.0563505040
 H         -0.9361188733       -1.3865412715       -0.1272921837
 H         -1.2953617648        0.3230984710       -1.9340868712
 H         -2.8095985455       -0.3681696883       -1.3535078451
 H         -2.3174506267        1.2416090359       -0.8289008206
 H          0.0746677799        0.5638766807        1.5729807135
 H         -0.0280633700        1.4384501457        0.0522998157
 H          1.3844497698       -1.2292055176        0.4593299454
 H          2.4336508384       -0.7300334586       -1.7468698263
 H          0.6909958826       -0.9300726302       -1.8900385978
 H          1.3995678303        0.6889034167       -1.9145246420
 H          2.5264472458        1.5918937074        0.2329361167
 H          2.4813835071        0.6159816050        1.7021270417
 H          3.4730349499        0.1069526372        0.3355521301
  23
        -23.15860057
 C         -1.7309124091        0.3381359264        1.5516677100
 C         -1.2418607391       -0.2201766957        0.2165701636
 C         -2.3771280049       -0.1960746997       -0.8058244801
 C         -0.0167794798        0.5591978095       -0.3017381676
 C          1.2512729921       -0.2922043016       -0.4331606959
 C          2.3205810290        0.4740905734       -1.2097540682
 C          1.7939899682       -0.6957997007        0.9355419398
 H         -0.9382936580        0.3076111741        2.2956639933
 H         -2.0546145739        1.3705421365        1.4344735461
 H         -2.5724599286       -0.2425824100        1.9244126207
 H         -0.9562732160       -1.2663996926        0.3697875505
 H         -2.0483090837       -0.6187477145       -1.7527677412
 H         -3.2259403231       -0.7764276304       -0.4496038446
 H         -2.7106363840        0.8251029297       -0.9799410525
 H          0.1968035996        1.3977428492        0.3641727966
 H         -0.2496784048        0.9800576683       -1.2819353476
 H          1.0023473365       -1.2006295892       -0.9941869241
 H          2.5769201751        1.3960268178       -0.6915880999
 H          3.2234227589       -0.1243072297       -1.3102933346
 H          1.9662354998        0.7283335460       -2.2063874512
 H          2.6809868428       -1.3162028436        0.8254775484
 H          2.0646175051        0.1889310139        1.5086415652
 H          1.0548420162       -1.2578076450        1.5005627698
  23
        -23.15766301
 C         -1.8558093083       -1.2313544707        0.4459979259
 C         -1.4736181096        0.0385344872       -0.3125048596
 C         -1.6661667405        1.2686532720        0.5707022590
 C         -0.0553534335       -0.0529795404       -0.8966854224
 C          1.0930627760       -0.1044836919        0.1279211036
 C          2.1117426710       -1.1759255536       -0.2597299634
 C          1.7945057827        1.2476847648        0.2481176853
 H         -2.8924519825       -1.1780595353        0.7717500562
 H         -1.7417522157       -2.1059505190       -0.1907648922
 H         -1.2328839801       -1.3659021325        1.3268079244
 H         -2.1569384418        0.1310230267       -1.1662484778
 H         -1.0465982430        1.2090993942        1.4618513239
 H         -1.4087677951        2.1746872858        0.0264978773
 H         -2.7048241497        1.3449179029        0.8862593732
 H          0.1005051994        0.8006298774       -1.5602820040
 H         -0.0180556916       -0.9506027270       -1.5182414806
 H          0.6903461381       -0.3681053274        1.1099800753
 H          1.6455996926       -2.1584688089       -0.2874173378
 H          2.5298793782       -0.9641598741       -1.2419625395
 H          2.9280204391       -1.2058766710        0.4593239576
 H          1.0919228640        2.0304585868        0.5201543519
 H          2.5719734513        1.2070795596        1.0087808020
 H          2.2593684714        1.5168580701       -0.6986477026
  23
        -23.15753460
 C         -1.7904367089       -1.2869284972        0.3119196895
 C         -1.4689890644        0.0545584760       -0.3435440589
 C         -1.7415224867        1.2087711104        0.6184076053
 C         -0.0363514353        0.0922551750       -0.8959399374
 C          1.0833259775       -0.0435656504        0.1546298220
 C          1.9758908511       -1.2457239687       -0.1493309370
 C          1.9274140817        1.2278733016        0.2259499363
 H         -1.6107533519       -2.1035260616       -0.3839502891
 H         -1.1787603918       -1.4492614695        1.1957028367
 H         -2.8350909422       -1.3187510386        0.6140352486
 H         -2.1407247004        0.1727038657       -1.2031908108
 H         -1.5413756522        2.1625950664        0.1351843393
 H         -2.7823023673        1.1980858848        0.9350908697
 H         -1.1178506056        1.1355794948        1.5056626988
 H          0.0918421138        1.0324004190       -1.4368415789
 H          0.0596838955       -0.7115187612       -1.6291532538
 H          0.6377242572       -0.2029180583        1.1403861632
 H          2.7510841813       -1.3479735037        0.6077254922
 H          1.3912752395       -2.1628224955       -0.1651942265
 H          2.4584340396       -1.1262097269       -1.1175320122
 H          2.6944349811        1.1358066718        0.9925952039
 H          2.4193276466        1.4113030050       -0.7274774518
 H          1.3068643133        2.0882293014        0.4653738261
  23
        -23.15639195
 C         -1.7605466221       -1.3111658342       -0.5562996934
 C         -1.4225917075        0.1715231530       -0.4050220350
 C         -1.8116842593        0.6716176018        0.9840778902
 C          0.0351542344        0.5099481077       -0.7698379950
 C          1.1291592263        0.3031721191        0.2868376891
 C          1.3601713387       -1.1620602772        0.6475394653
 C          2.4340927331        0.9027010571       -0.2418985684
 H         -2.8344419552       -1.4571762623       -0.4546619365
 H         -1.4605159493       -1.6739662640       -1.5368982381
 H         -1.2678897926       -1.9151322972        0.1986140260
 H         -2.0431798996        0.7091396921       -1.1340417711
 H         -1.5607989947        1.7240304035        1.0972660857
 H         -2.8833235764        0.5581761345        1.1349399992
 H         -1.3011059827        0.1062822061        1.7594944271
 H          0.0594759639        1.5689172667       -1.0428513211
 H          0.3056011449       -0.0570746880       -1.6643721467
 H          0.8539515942        0.8486406819        1.1946663061
 H          1.4820466994       -1.7623656711       -0.2513975466
 H          2.2627901248       -1.2597767838        1.2482354995
 H          0.5340952184       -1.5648233324        1.2258894531
 H          3.2251066303        0.8119249138        0.4993974370
 H          2.7507319375        0.3843304447       -1.1448603522
 H          2.3093839846        1.9571707844       -0.4787208427
  23
        -23.15634753
 C         -1.6751317842       -0.9308452133        1.0599740481
 C         -1.4756709047       -0.0906839509       -0.1993171958
 C         -1.7856984785        1.3783650596        0.0846553355
 C         -0.0994248632       -0.3222439030       -0.8500522906
 C          1.1521690105       -0.3158430095        0.0387661005
 C          2.3304574586       -0.8528596088       -0.7769893724
 C          1.5064688857        1.0673091093        0.5792007421
 H         -2.7112448219       -0.8732955113        1.3874125600
 H         -1.4350131916       -1.9742787650        0.8676180278
 H         -1.0460610993       -0.5719506489        1.8708000867
 H         -2.2107814685       -0.4285950042       -0.9417069131
 H         -1.2051685444        1.7560824810        0.9203081338
 H         -1.5742779827        1.9920813428       -0.7879076223
 H         -2.8394673469        1.4915571465        0.3327797478
 H          0.0348002232        0.4178354707       -1.6434583709
 H         -0.1391976584       -1.3036317769       -1.3316750959
 H          0.9940937273       -0.9933132065        0.8832132015
 H          2.5195520873       -0.2123934716       -1.6362980193
 H          3.2328309532       -0.8859206726       -0.1701518869
 H          2.1267613845       -1.8587999711       -1.1379977093
 H          0.7963412385        1.3958290087        1.3315345372
 H          2.4919398642        1.0458961718        1.0410342577
 H          1.5229670941        1.7989615164       -0.2256547700
  23
        -23.15631754
 C         -1.7601978047       -1.3369258583       -0.4388670318
 C         -1.4282349492        0.1543020106       -0.4095555022
 C         -1.8475092915        0.7651247909        0.9256845796
 C          0.0327200072        0.4784637787       -0.7715779582
 C          1.1255375289        0.2580588680        0.2838505286
 C          1.4410431975       -1.2151741924        0.5300662268
 C          2.3992813277        0.9714708481       -0.1754024579
 H         -1.3706763698       -1.8018839625       -1.3413630733
 H         -1.3483727439       -1.8545608022        0.4219964394
 H         -2.8397901237       -1.4748847804       -0.4236235118
 H         -2.0336213797        0.6273978466       -1.1940824636
 H         -1.5933445085        1.8222218247        0.9620028936
 H         -2.9227552716        0.6667393350        1.0603024854
 H         -1.3580145680        0.2602427403        1.7549926923
 H          0.0605529536        1.5384698161       -1.0405254817
 H          0.2982415004       -0.0859441693       -1.6693208908
 H          0.8092433768        0.7129939206        1.2270238363
 H          0.6231310786       -1.7211117725        1.0327055669
 H          1.6372561645       -1.7251368891       -0.4107247112
 H          2.3251607684       -1.3072327093        1.1585128153
 H          2.7461816265        0.5563645502       -1.1197463094
 H          2.2208281146        2.0356854164       -0.3143190071
 H          3.1911929628        0.8530590525        0.5611485787
  23
        -23.15206494
 C         -1.2801216006        0.6824397511        1.3182542833
 C         -1.3307357964       -0.3857327604        0.2297483779
 C         -1.9364690943        0.1925039887       -1.0495368270
 C         -0.0002286366       -1.1291746540        0.0003537068
 C          1.3306427983       -0.3864351835       -0.2291556857
 C          1.2809713155        0.6802094168       -1.3192034681
 C          1.9359105193        0.1934178204        1.0496333519
 H         -0.8212833571        0.2915196649        2.2228423413
 H         -0.7226505554        1.5540194260        0.9865795632
 H         -2.2904116453        1.0073151958        1.5616594839
 H         -2.0239581434       -1.1648151671        0.5761183634
 H         -1.3910533149        1.0643691866       -1.3950164330
 H         -1.9399995485       -0.5506453899       -1.8439382382
 H         -2.9659470110        0.4939651898       -0.8637408608
 H         -0.1582535002       -1.7828495215       -0.8626670315
 H          0.1575407189       -1.7827235496        0.8635066315
 H          2.0237677529       -1.1662667828       -0.5740367688
 H          0.8230659876        0.2879517459       -2.2236944767
 H          0.7230590497        1.5521892547       -0.9893209520
 H          2.2914629471        1.0048711062       -1.5620489641
 H          2.9662802123        0.4922477415        0.8645382560
 H          1.3919496773        1.0672862337        1.3923386581
 H          1.9367941334       -0.5478768002        1.8457633509
