  16
        -23.12437799
 C         -2.9237546825       -0.0018673355       -0.0011301976
 C         -1.4243912969       -0.0098217162        0.0010843110
 C         -0.7082419929       -1.1969419998        0.0006795433
 C          0.6758808574       -1.1955413276        0.0001172543
 C          1.3708658098        0.0056797253       -0.0002165921
 C          0.6631599692        1.2037392020        0.0000986329
 C         -0.7160622301        1.1878706106        0.0007234542
 O          2.7330247330        0.0577936023       -0.0005745328
 H         -3.3184536420       -1.0139086710        0.0383896079
 H         -3.3029766484        0.5533049820        0.8558753736
 H         -3.2993046359        0.4815040587       -0.9025263848
 H         -1.2341644418       -2.1410289294        0.0010878664
 H          1.2190882367       -2.1320846668        0.0001846396
 H          1.2132111091        2.1313285598       -0.0000264730
 H         -1.2571623065        2.1230989605        0.0010267497
 H          3.0916334047       -0.8376078405       -0.0010553434
