! pbe def2-sv(p) def2/J RI DEFGRID1 loosescf d4 GCP(DFT/SV(P)) printgap
%output
    printlevel normal
end
* xyz 0 1
C 1.9907335354 1.1037790275 -0.3796679663
C 1.4061469774 -0.305901041 -0.28647246
H 2.0266799965 -0.9837905743 -0.8859137899
C -0.0316865657 -0.3677523441 -0.8384720853
C -1.1024131007 0.2719431069 0.0607351381
C -2.2102862319 0.894562384 -0.7881226098
C -1.6996112299 -0.7626606521 1.0152210777
O 1.5135114656 -0.8186423483 1.0310667697
H 2.9919539902 1.1145190916 0.0445067486
H 2.0481426739 1.4142492324 -1.4185195602
H 1.3740827795 1.8164429197 0.1632835959
H -0.0190457158 0.1286878623 -1.8097047631
H -0.2957110724 -1.4136592759 -1.0049563807
H -0.6477686965 1.0729631127 0.6534590097
H -2.9860898054 1.312872827 -0.1508473851
H -2.6625418993 0.1413189098 -1.4295837808
H -1.8151290353 1.6901293894 -1.415492712
H -2.351869117 -0.2834845187 1.7421849704
H -2.2871538417 -1.4882333931 0.4558402217
H -0.918080276 -1.2995324508 1.5462972491
H 1.1455088101 -0.1656650564 1.6424773927
*
