! r2scan-3c def2/J RI DEFGRID2 scfconv6 printgap
%output
    printlevel normal
end
* xyz 0 1
C -3.1799648526 1.2351195527 -0.6741053736
C -1.9155450514 0.8109053396 -0.001464399
O -1.827108164 0.3217082592 1.1030810754
O -0.854062359 1.074201477 -0.7785450101
C 0.4279012598 0.7534943541 -0.3528676235
C 1.368577067 1.7732626052 -0.372336585
C 2.666512726 1.5280768208 0.0383563179
C 3.0261895521 0.2696137752 0.4964598334
C 2.0908164764 -0.7453694567 0.5185194767
C 0.785479217 -0.5263250205 0.0771116369
C -0.1384778234 -1.6836355249 0.0781844893
O -0.0267472096 -2.623205709 0.8395605366
O -1.0683418416 -1.6514719424 -0.8694048156
H -4.0330202032 0.8866774966 -0.101892954
H -3.1993148017 0.8396481145 -1.6854619142
H -3.1963079825 2.3207989837 -0.7357643739
H 1.0624400413 2.7499134586 -0.7108435701
H 3.3923735884 2.3247142144 0.0124811152
H 4.0319355314 0.07979642 0.8340557177
H 2.3434754305 -1.7353440854 0.8659858701
H -1.6084689885 -2.4664194362 -0.8667645533
*
