! pbe def2-sv(p) def2/J RI DEFGRID1 loosescf d4 GCP(DFT/SV(P)) printgap
%output
    printlevel normal
end
* xyz 0 1
C -2.2544300706 0.4282831991 -1.0548539529
C -1.8351631243 0.349328348 0.4162989257
C -0.4475521883 -0.2310889855 0.5024039375
O -0.1979683861 -1.4042396427 0.6886970427
O 0.4796573455 0.7008864979 0.3259840954
C 1.8600135945 0.3013991194 0.30463792
C 2.2882301508 -0.1124996193 -1.0949838951
H -2.2350770912 -0.5609709752 -1.5061230712
H -3.2619281243 0.8263353611 -1.1276441774
H -1.5783404158 1.078061366 -1.6043193424
H -2.5161240899 -0.2993229243 0.9658895254
H -1.8279288185 1.346867389 0.8529849218
H 2.4070146007 1.1815991626 0.6436768613
H 1.9943108757 -0.5251905885 1.00902713
H 3.3461253013 -0.3537050844 -1.0908340451
H 1.7276131468 -0.9893187889 -1.4115642278
H 2.1072904988 0.6967502738 -1.7972044526
*
