! r2scan-3c def2/J RI DEFGRID2 scfconv6 printgap
%output
    printlevel normal
end
* xyz 0 1
C 2.1678144096 1.3236095672 -0.5152976195
C 1.5862629457 0.281711655 0.4343422543
C 0.4032888633 -0.4992678115 -0.157576535
H 0.6758311704 -0.7781138443 -1.1828014711
C 0.1941959474 -1.7893349184 0.6363337738
C -0.876894421 0.3580054547 -0.249115323
C -1.8606834714 -0.2263785114 -1.2633716305
C -1.5763459858 0.5502415839 1.0956750002
H 1.4399068299 2.095326425 -0.7524331396
H 3.0316088368 1.8036144933 -0.0612735319
H 2.4847710034 0.8552818618 -1.4447159743
H 1.2790297587 0.7673912454 1.3622748953
H 2.3750532582 -0.4309208844 0.686412962
H 1.0618788971 -2.436416377 0.5269075543
H 0.0637180455 -1.5750805356 1.6937716357
H -0.6766850179 -2.3322813664 0.2794786898
H -0.5804999374 1.3462323302 -0.6164452224
H -2.7288253271 0.4216758922 -1.360743438
H -2.2064942706 -1.2083158575 -0.9497022308
H -1.3939291847 -0.3221744342 -2.2411901874
H -2.3784097706 1.2780173379 0.9925977912
H -0.8850172195 0.9157182692 1.8505852456
H -2.0104671592 -0.3831162696 1.4438168196
*
