  30
        -34.87326081
 C          4.9363789758        1.1021100755        0.4420290698
 C          3.5933986472        0.9162439200       -0.2533873102
 C          2.8258227014       -0.2810544415        0.3016980726
 C          1.4764556390       -0.4672401418       -0.3871110916
 C          0.7131798215       -1.6665894830        0.1676115290
 C         -0.6462261084       -1.8594250564       -0.5176133038
 C         -1.5673721462       -0.7052943487       -0.2435414056
 C         -2.1979024217       -0.5917958715        0.9898276991
 C         -3.0219233069        0.4835154916        1.2672091038
 C         -3.2282375796        1.4646587944        0.3120741769
 C         -2.6074603186        1.3609272515       -0.9204103405
 C         -1.7831450008        0.2834366920       -1.1943743083
 H          5.4660698281        1.9586894243        0.0314685674
 H          4.7940254679        1.2653582741        1.5081786679
 H          5.5586975558        0.2191705518        0.3121398443
 H          3.7561461715        0.7748104460       -1.3244454269
 H          2.9908732011        1.8187711675       -0.1274001599
 H          3.4266994313       -1.1849943418        0.1732076449
 H          2.6667010484       -0.1405322902        1.3736023882
 H          1.6354217644       -0.6047398899       -1.4596517870
 H          0.8753852323        0.4351305462       -0.2538022052
 H          0.5576002156       -1.5292766560        1.2400298970
 H          1.3114500186       -2.5705707419        0.0298878890
 H         -0.4931445656       -1.9653123587       -1.5935110180
 H         -1.0989679602       -2.7818701234       -0.1456409309
 H         -2.0429228725       -1.3570611685        1.7376635406
 H         -3.5061156183        0.5567945008        2.2304575396
 H         -3.8718047012        2.3050720541        0.5273184859
 H         -2.7652930742        2.1217949362       -1.6712805201
 H         -1.3017473162        0.2081346471       -2.1593572776
