! r2scan-3c def2/J RI DEFGRID2 scfconv6 printgap
%output
    printlevel normal
end
%cpcm
    smd true
    smdsolvent "water"
end
* xyz 0 1
C -3.1172699064 0.4483395021 -0.1543970966
C -1.9220562028 -0.255343477 0.4773257271
C -0.6076773496 0.2044088089 -0.1558607224
C 0.5744938129 -0.5028497322 0.4813194311
Cl 2.1197259577 0.0381883261 -0.2646169016
H -3.0393468623 1.5247993006 -0.0228672419
H -3.1651718595 0.2363121451 -1.2197344618
H -4.0425434452 0.1116007515 0.3054214072
H -2.0260267009 -1.3342783018 0.3505094633
H -1.9000337572 -0.0453333763 1.5480083465
H -0.6238111905 -0.0068784004 -1.2265381105
H -0.4977950585 1.2827800894 -0.0285518075
H 0.5265550474 -1.5801482625 0.3319983057
H 0.654310132 -0.2755827708 1.5430349447
*
