  16
  -29.7800359500000       0.250005291001935      !mtd7
 C          1.1078238563       -1.8562231667        0.0099242548
 C          2.1047289829       -0.8998663671        0.0133925242
 C          1.7947967565        0.4662702388        0.0076475711
 C          0.4517517760        0.8427262834        0.0025648373
 C         -0.5341531255       -0.1312789619       -0.0004919027
 C         -0.2255080598       -1.4863460144        0.0029187168
 N         -1.9137723770        0.2788064742       -0.0012496163
 O         -2.7624225351       -0.5876849087       -0.0292300659
 O         -2.1511499470        1.4691036383        0.0282586412
 N          2.7827131360        1.4101589949       -0.0550427179
 H          1.3729402640       -2.9021540084        0.0148072894
 H          3.1420991489       -1.2007275386        0.0185380378
 H          0.1681539826        1.8841065399       -0.0015667228
 H         -1.0194391726       -2.2150076522        0.0021961172
 H          3.7193275948        1.1305261930        0.1796108082
 H          2.5367941236        2.3620165558        0.1556420886
  16
  -29.7800359300000       0.249999999972241      !mtd4
 C          1.1080761146       -1.8550476229        0.0631236528
 C          2.1047059014       -0.8999872730        0.0078445041
 C          1.7945576792        0.4650884869       -0.0447695559
 C          0.4515290533        0.8417211195       -0.0444807950
 C         -0.5340370876       -0.1310208570        0.0111006060
 C         -0.2252152918       -1.4849493842        0.0656174547
 N         -1.9137440932        0.2789200519        0.0060779602
 O         -2.1516466028        1.4669697119       -0.0721662739
 O         -2.7618952620       -0.5853568888        0.0783876754
 N          2.7827463203        1.4106382779       -0.0333425153
 H          1.3733411137       -2.9002165914        0.1021914085
 H          3.1420364421       -1.2010214623        0.0066871721
 H          0.1677473783        1.8822775160       -0.0844342186
 H         -1.0189871519       -2.2126646447        0.1059003495
 H          2.5348288093        2.3522224420       -0.2838930489
 H          3.7174695716        1.1206168088       -0.2626888316
  16
  -29.7800359300000       0.249999999972241      !gc
 C          1.1078261326       -1.8562448857        0.0092301803
 C          2.1047238853       -0.8998882745        0.0130704834
 C          1.7947972567        0.4662582444        0.0079019442
 C          0.4517578000        0.8427286032        0.0028792314
 C         -0.5341256674       -0.1312993460       -0.0005138922
 C         -0.2255186371       -1.4863662893        0.0024478200
 N         -1.9137795796        0.2788077174       -0.0012737397
 O         -2.1511345547        1.4690940011        0.0300315987
 O         -2.7624164220       -0.5876433120       -0.0309592320
 N          2.7826973849        1.4102071685       -0.0543794352
 H          1.3729415975       -2.9021642969        0.0147135261
 H          3.1420901534       -1.2007412317        0.0185562897
 H          0.1681278620        1.8840954346       -0.0012498023
 H         -1.0194536694       -2.2150176417        0.0018800838
 H          3.7193028721        1.1306016672        0.1802548828
 H          2.5365994438        2.3619117986        0.1566997899
  16
  -29.7800359100000       0.249994709053584      !mtd5
 C          1.1078228628       -1.8562307284        0.0105184438
 C          2.1047189386       -0.8998796225        0.0132765407
 C          1.7948269484        0.4662547601        0.0073951984
 C          0.4517527885        0.8427238790        0.0025630089
 C         -0.5341149872       -0.1312620632        0.0000703632
 C         -0.2255037142       -1.4863342862        0.0039168299
 N         -1.9138411351        0.2788367470       -0.0011872253
 O         -2.7623745367       -0.5876835879       -0.0315836087
 O         -2.1512189681        1.4690834188        0.0298988532
 N          2.7827458052        1.4101615347       -0.0558595152
 H          1.3729637079       -2.9021515554        0.0159502220
 H          3.1420828394       -1.2007726646        0.0179660397
 H          0.1681954748        1.8840989948       -0.0018385749
 H         -1.0194230129       -2.2149828014        0.0040173434
 H          2.5367755692        2.3619080821        0.1551250461
 H          3.7193700070        1.1306240805        0.1785506314
