! pbe def2-sv(p) def2/J RI DEFGRID1 loosescf d4 GCP(DFT/SV(P)) printgap
%output
    printlevel normal
end
* xyz 0 1
C -1.8211800519 0.9060660618 -0.5881732007
C -0.9538350421 0.6229111178 0.6335964794
C 0.0341038525 -0.542686828 0.472628821
H 0.4650045096 -0.7346780628 1.4638064369
C -0.638934314 -1.8256310982 -0.0085697429
C 1.1921336188 -0.1733087783 -0.4649780508
O 1.9597762442 0.9190531593 -0.0053504004
H -2.4444993328 1.7766268704 -0.3977899442
H -1.2090438182 1.1160255785 -1.461372824
H -2.4721484191 0.0653122037 -0.8107811501
H -1.6044565599 0.4104796012 1.4849489337
H -0.3766470441 1.5200347521 0.8699562993
H -1.5034310391 -2.050817526 0.6104645724
H 0.0549108383 -2.660829928 0.0514843449
H -0.9623838671 -1.7275462057 -1.0410112016
H 0.8100131995 0.1324976436 -1.4409562666
H 1.8364515103 -1.0510170008 -0.6132451785
H 2.3674008027 0.6824658252 0.8390767665
*
