! r2scan-3c def2/J RI DEFGRID2 scfconv6 printgap
%output
    printlevel normal
end
* xyz 0 1
C 1.8766937172 -0.3201689199 0.5521227882
O 1.0109986988 -0.194920918 -0.5576260268
C 0.0509864624 0.842172851 -0.4447456937
C -1.1403498145 0.4666047396 0.4561079519
N -1.8641599946 -0.7145731464 0.0166335864
H 2.3928041966 0.6257778822 0.7477873757
H 2.6006978216 -1.0844163894 0.2797793631
H 1.3405300786 -0.6304938563 1.4534937787
H 0.5274277062 1.760367413 -0.0763718282
H -0.2990123335 1.0074716243 -1.4678605393
H -0.7884797972 0.2805440256 1.4740868601
H -1.8328735712 1.3101152667 0.4839218259
H -1.204981215 -1.4809715501 -0.0869419861
H -2.2609449341 -0.544754822 -0.902194725
*
