! r2scan-3c def2/J RI DEFGRID2 scfconv6 printgap
%output
    printlevel normal
end
%cpcm
    smd true
    smdsolvent "water"
end
* xyz 0 1
C -2.2998859859 0.2517023983 1.0891448251
C -1.8186994457 0.4546305886 -0.3509795511
C -0.4526361161 -0.1626966869 -0.5014090405
O -0.2461646116 -1.330612497 -0.7596056997
O 0.5081624292 0.7273369337 -0.2914135241
C 1.8755539994 0.2853242245 -0.3222803926
C 2.3287213339 -0.1791731416 1.0533844626
H -2.3302621994 -0.8087133294 1.3285395832
H -1.6293826447 0.7489745276 1.785393822
H -3.2966391142 0.666301932 1.2045393048
H -1.7535984119 1.5173919887 -0.578216179
H -2.5005243755 -0.0401518794 -1.0418021247
H 1.9630567363 -0.5252965815 -1.0521043721
H 2.4410867427 1.1568251625 -0.6535068894
H 1.7496470921 -1.0463654374 1.3631224459
H 3.3780274983 -0.4524521417 1.0132635929
H 2.1924820173 0.6164560838 1.7807925081
*
