! r2scan-3c def2/J RI DEFGRID2 scfconv6 printgap
%output
    printlevel normal
end
* xyz 0 1
C -2.016911201 0.3304030704 0.7000049452
C -1.4824380822 -0.4756777656 -0.4769229714
C -0.1845150917 0.1180849138 -1.0407370877
C 0.9412492179 0.1127188835 -0.0430220909
C 1.3735401121 1.2254632722 0.5293852797
C 1.5424234676 -1.2254567666 0.2622825523
H -1.2865812475 0.3579947229 1.5055028387
H -2.9355182707 -0.1111072777 1.0790168478
H -2.2263658152 1.3535516706 0.3956827712
H -1.3095314392 -1.5068728031 -0.1643132226
H -2.2304202814 -0.4932722423 -1.272547084
H 0.1126279492 -0.4632510348 -1.9171340444
H -0.3793628854 1.1429438131 -1.3623441025
H 2.1784560526 1.2233365001 1.2456457308
H 0.9405040337 2.1862401235 0.3065671121
H 1.8960667444 -1.6960455145 -0.6539847544
H 2.3758732441 -1.1288256867 0.9526772475
H 0.7984835805 -1.8840078634 0.7076054752
*
