! pbe def2-sv(p) def2/J RI DEFGRID1 loosescf d4 GCP(DFT/SV(P)) printgap
%output
    printlevel normal
end
* xyz 0 1
C 1.6182800122 -0.8121941386 -0.1525120224
O 1.279804013 0.5522347262 -0.0159736566
C 0.0113375666 0.8018810995 0.5610432198
C -1.1818219541 0.4499968443 -0.3430932266
N -1.7471853582 -0.8467778829 0.0072369538
H 1.4539881278 -1.350552126 0.7865197142
H 2.6752470137 -0.834814023 -0.4093374223
H 1.045992421 -1.2912125515 -0.9536243224
H -0.0894875853 0.2562132426 1.5082592524
H 0.0214202638 1.8740390642 0.7621936798
H -1.9667059093 1.1930185419 -0.1877024566
H -0.8479387284 0.5237821964 -1.3916936389
H -1.0863716029 -1.5896819698 -0.1935853739
H -2.5774059951 -1.0188074261 -0.5478073945
*
