  26
        -39.37913954
 C          3.4975554851       -0.0000057513       -0.0000186269
 C          2.8127973854       -1.2015750257       -0.0000136886
 C          1.4174944707       -1.2260425824        0.0000018850
 C          0.6764133853       -2.4450077400        0.0000073780
 C         -0.6764159919       -2.4450050250        0.0000098036
 C         -1.4174977157       -1.2260398244        0.0000075066
 C         -2.8128004816       -1.2015729434        0.0000050916
 C         -3.4975568007       -0.0000026011       -0.0000162695
 C         -2.8127967898        1.2015728538       -0.0000211496
 C         -1.4174987873        1.2260457757       -0.0000026137
 C         -0.7076330522        0.0000020844        0.0000042144
 C          0.7076307563        0.0000016268        0.0000049730
 C          1.4175003373        1.2260414598        0.0000065663
 C          2.8128007450        1.2015708665       -0.0000032750
 C          0.6764171572        2.4450096446        0.0000163737
 C         -0.6764113505        2.4450086572        0.0000125594
 H          4.5781876578       -0.0000053107       -0.0000140589
 H          3.3565128718       -2.1356733831       -0.0000199837
 H          1.2284649056       -3.3745853812        0.0000139745
 H         -1.2284629620       -3.3745845054        0.0000224013
 H         -3.3565172491       -2.1356700453        0.0000024836
 H         -4.5781922807        0.0000030357       -0.0000217564
 H         -3.3565199823        2.1356645000       -0.0000224095
 H          3.3565310062        2.1356578905        0.0000052981
 H          1.2284701193        3.3745871538        0.0000161192
 H         -1.2284592216        3.3745884608        0.0000092521
