! pbe def2-sv(p) def2/J RI DEFGRID1 loosescf d4 GCP(DFT/SV(P)) printgap
%output
    printlevel normal
end
* xyz 0 1
C 2.3781548465 -0.1849948524 -0.6559589998
C 1.5678562464 0.2886353563 0.5455638654
C 0.2553474834 -0.4765532581 0.7238330337
C -0.8183052747 -0.0793305743 -0.2933778237
H -0.4120446933 -0.1829768897 -1.3119801452
C -2.0527195659 -0.9715343772 -0.1597604786
O -1.1394262807 1.284105059 -0.0596301562
H 1.8359734913 -0.0213823718 -1.5836201676
H 2.600135712 -1.2464901175 -0.5693474013
H 3.317384783 0.35962552 -0.7128760433
H 2.1690480423 0.1609834496 1.4481170152
H 1.338580355 1.3508643695 0.4441051729
H 0.4398657715 -1.5484708665 0.6427229448
H -0.1452349059 -0.2678284745 1.717696714
H -2.8089874115 -0.6926560345 -0.8902632419
H -1.7799321762 -2.0097016094 -0.32376055
H -2.4747389077 -0.8696536716 0.8373081596
H -1.8461991487 1.5507639278 -0.6618009781
*
