  30
        -33.54494985
 C          5.6096217646        0.5366100086       -0.1034575931
 C          4.3935523806       -0.2944443374        0.2868702552
 C          3.0897751335        0.3547132006       -0.1710965673
 C          1.8672283852       -0.4744640179        0.2142564681
 C          0.5642584534        0.1781229891       -0.2412011588
 C         -0.6585100110       -0.6538997764        0.1373416722
 C         -1.9588469496        0.0035527302       -0.3163884639
 C         -3.1848783614       -0.8298821409        0.0497150444
 C         -4.4870033140       -0.1162263608       -0.3176945037
 O         -4.6590744086        1.1024704350        0.3659464273
 H          5.6623050501        0.6516045875       -1.1840614908
 H          5.5538800401        1.5269832326        0.3430475783
 H          6.5256430409        0.0586821981        0.2358782350
 H          4.3720848575       -0.4181794790        1.3721469981
 H          4.4764011635       -1.2892913073       -0.1569269618
 H          3.0067682235        1.3488585312        0.2748859486
 H          3.1121288573        0.4815598018       -1.2562407899
 H          1.8465563368       -0.6038259696        1.2992569768
 H          1.9492309405       -1.4679210177       -0.2336377755
 H          0.4795260790        1.1692978491        0.2105822245
 H          0.5872944207        0.3117506240       -1.3252937574
 H         -0.6789464838       -0.7908503209        1.2215075410
 H         -0.5765420371       -1.6442809978       -0.3174538875
 H         -2.0505111156        0.9902018532        0.1425511693
 H         -1.9354109937        0.1462049881       -1.3989131239
 H         -3.1531443587       -1.7893566804       -0.4700713505
 H         -3.1800498578       -1.0326906326        1.1253499095
 H         -4.4874770727        0.1453477022       -1.3782952548
 H         -5.3405401234       -0.7842452063       -0.1247949021
 H         -4.5981699351        0.9328053431        1.3129255143
