! r2scan-3c def2/J RI DEFGRID2 scfconv6 printgap
%output
    printlevel normal
end
* xyz 0 1
C -2.3859201996 0.3969211012 0.5960202652
C -1.5089191119 0.2645124442 -0.6441382845
C -0.5894294856 -0.9574987753 -0.6028784855
C 0.5105748611 -0.8655624027 0.4397402131
Cl 1.6580090852 0.4709646958 0.0612894472
H -3.0735796319 1.2307027324 0.479129915
H -2.9673729319 -0.5091303541 0.7498311675
H -1.7869419209 0.5796215027 1.4841826819
H -0.9030582514 1.1649802531 -0.7622048376
H -2.1500802365 0.1801744124 -1.5234022909
H -1.1800914777 -1.8469578807 -0.3739889439
H -0.1341506153 -1.096346011 -1.5849649762
H 1.1103903846 -1.7732808982 0.4617800543
H 0.1176684109 -0.6532167505 1.4312185827
*
