! r2scan-3c def2/J RI DEFGRID2 scfconv6 printgap
%output
    printlevel normal
end
%cpcm
    smd true
    smdsolvent "water"
end
* xyz 0 1
C 2.8156519183 -0.4359499893 -0.0903422329
C 1.3885168338 -0.3235038717 0.4298370025
C 0.6420003376 0.8408621603 -0.2175638558
C -0.7800455587 0.9808354149 0.2988140235
S -1.7923407048 -0.4770993187 -0.1987909676
H 3.327252963 -1.2709214637 0.3812687468
H 3.371312976 0.474501103 0.1228680414
H 2.8172290604 -0.5952586781 -1.1663168079
H 1.4041669226 -0.183306527 1.5133103157
H 0.8509544151 -1.2524703528 0.2231486236
H 0.6184229865 0.6995003126 -1.3010225134
H 1.1729663671 1.7733742178 -0.0110145366
H -0.7979454002 1.0313969238 1.3870449147
H -1.2611238784 1.8601201663 -0.126545744
H -2.9373680321 -0.0171848972 0.2875877579
*
