! r2scan-3c def2/J RI DEFGRID2 scfconv6 printgap
%output
    printlevel normal
end
%cpcm
    smd true
    smdsolvent "water"
end
* xyz 0 1
C -2.1808052141 1.3103481441 0.067365363
C -1.8948009764 -0.1508156488 0.4123201416
C -0.5575427868 -0.6018606184 -0.1171874485
O -0.3857792894 -1.5835981344 -0.8130766237
O 0.4299675307 0.1902737537 0.2695028655
C 1.7593890629 -0.1361740867 -0.1669563534
C 2.7064100921 0.9193433502 0.3699510606
H -2.2101139874 1.4476800595 -1.0106002843
H -3.1416484823 1.6019848397 0.4805878226
H -1.4083997914 1.9519677967 0.4809422103
H -2.6577815217 -0.8090065895 -0.0029230526
H -1.8748428391 -0.271071667 1.4969338276
H 2.0094261774 -1.1349228474 0.2062223879
H 1.7660036291 -0.1717245022 -1.261381861
H 3.7202282089 0.6791745414 0.0673539066
H 2.4373283232 1.8958609781 -0.0214520771
H 2.6526402163 0.9490703467 1.4541081763
*
