  20
        -25.65474672
 C         -2.5198382463        0.7343426948        0.0072808019
 C         -1.2134990656       -0.0077978770       -0.0030633164
 C         -1.1941145710       -1.3924560773       -0.0005003200
 C          0.0000417097       -2.0898743396       -0.0031498191
 C          1.1941621567       -1.3923859135       -0.0008077087
 C          1.2135034591       -0.0077222410       -0.0032226349
 C         -0.0000215870        0.6949952921       -0.0127722923
 N         -0.0001159146        2.0820729912        0.0443149889
 C          2.5198535687        0.7344010459        0.0074289845
 H         -3.3499659029        0.0345687185        0.0573822301
 H         -2.5779896138        1.4001694599        0.8682642231
 H         -2.6390755164        1.3338187190       -0.8977196421
 H         -2.1307692734       -1.9318898752        0.0035563745
 H          0.0000708634       -3.1693965061       -0.0029007663
 H          2.1308451800       -1.9317641928        0.0030724441
 H         -0.8412225076        2.5263399802       -0.2863963906
 H          0.8415627223        2.5262971905       -0.2849463359
 H          2.5781099019        1.3996828440        0.8688201040
 H          3.3499608950        0.0345839945        0.0571405091
 H          2.6390422873        1.3344789341       -0.8971708795
  20
        -25.65200635
 C         -2.5585552857        0.6848833805        0.0173532438
 C         -1.2129491475        0.0097262032       -0.0044249710
 C         -1.1924245087       -1.3786071456       -0.0046659823
 C         -0.0057178974       -2.0834253886       -0.0063409721
 C          1.1910992452       -1.3890283565        0.0009152920
 C          1.2115149642       -0.0060564604       -0.0012740624
 C          0.0010938644        0.7088324067       -0.0150151316
 N          0.0412568997        2.0974290172        0.0344453985
 C          2.5232334360        0.7272453845        0.0137482341
 H         -2.4971225517        1.7686497521       -0.0126637877
 H         -3.1577860751        0.3512971432       -0.8298580682
 H         -3.0902113899        0.4113467481        0.9282566065
 H         -2.1339278572       -1.9098144000       -0.0025034286
 H         -0.0106712652       -3.1629298022       -0.0081374230
 H          2.1266634334       -1.9302052310        0.0075248642
 H          0.8953005340        2.5068764473       -0.3078678956
 H         -0.7797671780        2.5697254551       -0.3079568970
 H          2.6580408487        1.3140343829       -0.8974972231
 H          2.5782139017        1.4024875784        0.8674646308
 H          3.3468372945        0.0212161499        0.0810306455
