  9
  -11.8513341100000       0.333335684881350      !gc
 C         -1.6320557028       -0.4764177934       -0.0000002605
 C         -0.6051283746        0.6578631262       -0.0000117805
 C          0.7381973175        0.1354147493        0.0000341370
 N          1.7975385298       -0.2936444765       -0.0000161863
 H         -1.5104059886       -1.1006364534        0.8824473012
 H         -2.6386124927       -0.0649549587       -0.0001692861
 H         -1.5102362654       -1.1008686719       -0.8822626966
 H         -0.7289112015        1.2856326928        0.8872684837
 H         -0.7288624790        1.2856033043       -0.8873221779
  9
  -11.8513341000000       0.333332157559325      !mtd5
 C         -1.6320467055       -0.4764151446       -0.0000037192
 C         -0.6051321416        0.6578718370        0.0000022131
 C          0.7381716574        0.1353899590       -0.0000073687
 N          1.7975499015       -0.2936367188        0.0000018936
 H         -1.5105165555       -1.1005925543       -0.8824970269
 H         -1.5101301519       -1.1009415281        0.8821817364
 H         -2.6385867742       -0.0649007893        0.0003039912
 H         -0.7288549363        1.2855693720        0.8873490428
 H         -0.7288545824        1.2856936553       -0.8872582990
  9
  -11.8513341000000       0.333332157559325      !mtd2
 C         -1.6319551787       -0.4764755722       -0.0000087774
 C         -0.6051494205        0.6579127964        0.0000149899
 C          0.7382113278        0.1355572055       -0.0000512715
 N          1.7974498682       -0.2937566173        0.0000188347
 H         -2.6385284561       -0.0650519125       -0.0001463021
 H         -1.5101267529       -1.1009061099       -0.8822806687
 H         -1.5103737428       -1.1005780822        0.8824946054
 H         -0.7289133749        1.2855579410        0.8874173345
 H         -0.7289680685        1.2857114865       -0.8872097523
