  15
        -17.72052374
 C          2.3435579988       -0.1213111127       -0.1382590491
 C          0.9209077200       -0.3968804658        0.3230895517
 O          0.0703016313        0.5681904235       -0.2580765930
 C         -1.2436831214        0.5844355422        0.2453678548
 C         -2.0914054115       -0.6164331374       -0.1734385489
 H          2.6466478173        0.8751528239        0.1707157391
 H          3.0228641716       -0.8529205112        0.2905989809
 H          2.3945637221       -0.1760249155       -1.2219361759
 H          0.8568295982       -0.3356433597        1.4216740933
 H          0.6214739840       -1.4111516606        0.0202399986
 H         -1.2243162403        0.6579721252        1.3447527139
 H         -1.6817791599        1.5014546811       -0.1579890222
 H         -2.0522455327       -0.7371953943       -1.2531578428
 H         -1.7355007485       -1.5308454350        0.2951256584
 H         -3.1229034214       -0.4537249312        0.1269126380
