  15
        -17.72052374
 C          2.3435579988       -0.1213111127       -0.1382590491
 C          0.9209077200       -0.3968804658        0.3230895517
 O          0.0703016313        0.5681904235       -0.2580765930
 C         -1.2436831214        0.5844355422        0.2453678548
 C         -2.0914054115       -0.6164331374       -0.1734385489
 H          2.6466478173        0.8751528239        0.1707157391
 H          3.0228641716       -0.8529205112        0.2905989809
 H          2.3945637221       -0.1760249155       -1.2219361759
 H          0.8568295982       -0.3356433597        1.4216740933
 H          0.6214739840       -1.4111516606        0.0202399986
 H         -1.2243162403        0.6579721252        1.3447527139
 H         -1.6817791599        1.5014546811       -0.1579890222
 H         -2.0522455327       -0.7371953943       -1.2531578428
 H         -1.7355007485       -1.5308454350        0.2951256584
 H         -3.1229034214       -0.4537249312        0.1269126380
  15
        -17.72046031
 C          2.3869917054       -0.1627173994       -0.2835468731
 C          1.1587796489        0.2601558133        0.5057345020
 O          0.0080689186       -0.1129998939       -0.2141522701
 C         -1.1940909726        0.2348904468        0.4303095383
 C         -2.3599115072       -0.2169878031       -0.4339615129
 H          3.2890302831        0.1146277349        0.2547338455
 H          2.3750510413       -1.2383388441       -0.4348923993
 H          2.3849978758        0.3222562097       -1.2555756366
 H          1.1633697661        1.3512037948        0.6667086467
 H          1.1546348094       -0.2236283614        1.4968287364
 H         -1.2419086373       -0.2472298204        1.4210473985
 H         -1.2335633716        1.3257923512        0.5874919510
 H         -3.3003222072        0.0409215117        0.0450589426
 H         -2.3070321590        0.2660165804       -1.4055430575
 H         -2.3142542342       -1.2923642281       -0.5806643744
  15
        -17.72015724
 C          1.9122331101       -0.2961305395        0.6300716290
 C          1.0224882937       -0.2379044231       -0.6111699863
 O         -0.0010937560        0.7326829313       -0.5484543656
 C         -1.0230260549        0.5175291196        0.4018300246
 C         -1.9106395272       -0.6917384892        0.1094267810
 H          1.3778092739       -0.7096260910        1.4821560756
 H          2.7725712078       -0.9277992734        0.4265086321
 H          2.2594188900        0.7023521707        0.8843315756
 H          0.6052923064       -1.2330803533       -0.8171686003
 H          1.6199988565        0.0670038933       -1.4746287295
 H         -0.6043556718        0.4359052811        1.4142192378
 H         -1.6224400203        1.4306960519        0.3530709324
 H         -2.7699464633       -0.6761428742        0.7742532195
 H         -2.2595188383       -0.6551953168       -0.9197049990
 H         -1.3740493383       -1.6246726893        0.2653024252
  15
        -17.72015681
 C          1.9406887495       -0.2649222025       -0.5825217839
 C          1.0051031315       -0.2665228721        0.6260105800
 O         -0.0164599834        0.7066688696        0.5710780052
 C         -1.0111656196        0.5277152151       -0.4149415811
 C         -1.9187132326       -0.6794696417       -0.1806490814
 H          2.7910082852       -0.9103941166       -0.3800785805
 H          1.4373820908       -0.6311229072       -1.4742912779
 H          2.2997868995        0.7437910321       -0.7716556309
 H          1.5697318757       -0.0039317718        1.5248073156
 H          0.5819357244       -1.2702676100        0.7679672982
 H         -1.6032143845        1.4453533652       -0.3601457530
 H         -0.5631737423        0.4679832434       -1.4161629443
 H         -1.3852639244       -1.6136521517       -0.3397770999
 H         -2.3016399005       -0.6631158001        0.8368072976
 H         -2.7549005088       -0.6407110511       -0.8734413755
  15
        -17.72015554
 C          1.9159015598       -0.2876552795       -0.5919360050
 C          1.0059905527       -0.2503090541        0.6353847841
 O         -0.0164416821        0.7216169992        0.5743462831
 C         -1.0132148272        0.5356053285       -0.4082384074
 C         -1.8927634006       -0.6950466571       -0.1903279220
 H          2.7715124617       -0.9248871160       -0.3854366555
 H          1.3946939763       -0.6844888163       -1.4598819837
 H          2.2694372291        0.7143268748       -0.8223503847
 H          1.5891613150        0.0390352155        1.5138495847
 H          0.5851758906       -1.2487436681        0.8168376736
 H         -1.6244479077        1.4392031352       -0.3343850782
 H         -0.5698827016        0.5029222012       -1.4129878278
 H         -2.7395593233       -0.6564834771       -0.8701236498
 H         -1.3431429354       -1.6140697373       -0.3797806051
 H         -2.2615963037       -0.7108761347        0.8323450209
  15
        -17.72013930
 C          2.0307804343       -0.1781758003       -0.5392268420
 C          1.0019964416       -0.3291975205        0.5812247896
 O         -0.0153720455        0.6496135238        0.5546764527
 C         -1.0066704146        0.4955988871       -0.4391887057
 C         -2.0112350464       -0.6168675145       -0.1396173903
 H          1.5915064942       -0.3901846426       -1.5113369443
 H          2.4212069691        0.8362693911       -0.5470809738
 H          2.8503377936       -0.8722374078       -0.3741945225
 H          1.4923471752       -0.1838116784        1.5478001689
 H          0.5745569938       -1.3403591726        0.5610977341
 H         -1.5244306425        1.4585945495       -0.4562604485
 H         -0.5519984961        0.3320155289       -1.4251270329
 H         -2.8166383507       -0.5836159448       -0.8683076372
 H         -1.5429615102       -1.5971030223       -0.1898550554
 H         -2.4271311667       -0.4800936176        0.8553990818
  15
        -17.72013675
 C          2.0425513217       -0.1658072296       -0.5323854824
 C          1.0019703479       -0.3379193592        0.5740546007
 O         -0.0153360803        0.6411966775        0.5522361304
 C         -1.0059071303        0.4904014397       -0.4427700607
 C         -2.0237693358       -0.6072800712       -0.1334031618
 H          2.4348975266        0.8477781292       -0.5149665026
 H          2.8590520910       -0.8651172683       -0.3744249300
 H          1.6121597393       -0.3556052056       -1.5128803822
 H          1.4819377551       -0.2100096121        1.5482736100
 H          0.5751337456       -1.3485571348        0.5308326483
 H         -1.5124986725        1.4591012024       -0.4713533084
 H         -0.5508726114        0.3109552853       -1.4257331788
 H         -2.8248662675       -0.5762686936       -0.8668443225
 H         -1.5650577830       -1.5927306363       -0.1668000076
 H         -2.4433488192       -0.4522356388        0.8573114453
  15
        -17.72013337
 C          2.0540779624       -0.1535106658       -0.5253469286
 C          1.0019770951       -0.3465745096        0.5666325882
 O         -0.0151842785        0.6328214578        0.5496804880
 C         -1.0053185416        0.4851355865       -0.4462806510
 C         -2.0360375046       -0.5976140291       -0.1270891678
 H          2.8657035995       -0.8605452776       -0.3768538753
 H          1.6316675931       -0.3171171926       -1.5140310094
 H          2.4509518949        0.8574156175       -0.4799833233
 H          1.4714686875       -0.2366899243        1.5481500462
 H          0.5758775129       -1.3562076695        0.4999407636
 H         -1.5008503933        1.4591616150       -0.4862051343
 H         -0.5503286697        0.2899506597       -1.4262090585
 H         -2.8314082697       -0.5713847694       -0.8669407290
 H         -1.5859532975       -1.5875308670       -0.1405728726
 H         -2.4612595040       -0.4226241881        0.8578503822
  15
        -17.72011700
 C          2.0817996766       -0.1237697097       -0.5068498525
 C          1.0016002462       -0.3680414675        0.5467322188
 O         -0.0144781573        0.6126692662        0.5426104188
 C         -1.0049402839        0.4727935812       -0.4542766375
 C         -2.0644352045       -0.5742090656       -0.1110288349
 H          2.8807343647       -0.8502036855       -0.3853077343
 H          1.6789281556       -0.2185804649       -1.5125962140
 H          2.4902324525        0.8767340707       -0.3901806136
 H          1.4448483555       -0.3052576346        1.5445489127
 H          0.5774313518       -1.3727309459        0.4206564206
 H         -1.4742875624        1.4583826143       -0.5199658398
 H         -0.5522118660        0.2410330363       -1.4272040940
 H         -2.4969382248       -0.3547254063        0.8616906268
 H         -2.8502789977       -0.5574431147       -0.8612696759
 H         -1.6357590046       -1.5733204106       -0.0823751688
  15
        -17.71958935
 C          1.6537997575       -0.9089734039       -0.1150389541
 C          1.2506914441        0.5158714422        0.2615710063
 O         -0.0167905580        0.9175475642       -0.2009728505
 C         -1.1366543570        0.3285909858        0.4300149342
 C         -1.7504965298       -0.8164552257       -0.3739684889
 H          1.0644378495       -1.6408501372        0.4320925892
 H          1.5121523140       -1.0650485504       -1.1814500144
 H          2.7022664734       -1.0627097475        0.1274371096
 H          1.9427035669        1.2252471073       -0.2009953542
 H          1.3075655877        0.6363680372        1.3551670563
 H         -0.8699665767       -0.0126314494        1.4390952685
 H         -1.8783949788        1.1304311179        0.5247986873
 H         -1.0747965695       -1.6642384668       -0.4395773855
 H         -2.6736736269       -1.1397614119        0.1005823591
 H         -1.9724028470       -0.4736042486       -1.3810071575
  15
        -17.71937169
 C          1.7072127399       -0.8566314877       -0.2834130345
 C          1.1871892568        0.3835493704        0.4435044303
 O          0.0110447500        0.9374040904       -0.1021943644
 C         -1.2176368949        0.4109398168        0.3451944085
 C         -1.6878636566       -0.8397951020       -0.3973007066
 H          1.7281953734       -0.6706173865       -1.3539437579
 H          2.7164658958       -1.0760083811        0.0560241187
 H          1.0837272461       -1.7251534329       -0.0917100042
 H          1.9321635523        1.1816039162        0.3579734554
 H          1.0400060449        0.1600114300        1.5106116453
 H         -1.1714077314        0.2103626233        1.4261692329
 H         -1.9388206938        1.2169412224        0.1744543202
 H         -1.6051592376       -0.6815015131       -1.4693796967
 H         -1.1001577362       -1.7120975122       -0.1256506776
 H         -2.7280771359       -1.0356303222       -0.1491587105
  15
        -17.71879797
 C          2.3069197219        0.0145666728       -0.2272683280
 C          0.9459203669       -0.5284792176        0.1985011504
 O          0.0310920681        0.5361433721        0.3945101674
 C         -1.1267181844        0.5126828470       -0.4054524041
 C         -2.1576912934       -0.5194778980        0.0505726095
 H          2.2222428060        0.5401070198       -1.1754181587
 H          2.6738075239        0.7113748604        0.5208724075
 H          3.0170978941       -0.8011276532       -0.3349318333
 H          1.0445852236       -1.0738094263        1.1460024832
 H          0.5723152865       -1.2248107817       -0.5608010350
 H         -1.5484397117        1.5177221139       -0.3170002086
 H         -0.8634837707        0.3370708729       -1.4594878672
 H         -2.4234593373       -0.3410603550        1.0893092686
 H         -3.0512416402       -0.4422729053       -0.5630493698
 H         -1.7607717328       -1.5287333181       -0.0360822417
