  9
        -11.38852244
 C         -1.1694369000       -0.2440462864       -0.0000045190
 O          0.0000108975        0.5319879328        0.0000031481
 C          1.1694261829       -0.2440600206       -0.0000001042
 H         -1.2242821321       -0.8824280482       -0.8912569433
 H         -2.0065891310        0.4507263060       -0.0000995859
 H         -1.2244790905       -0.8823039503        0.8913500544
 H          2.0066860096        0.4507061036       -0.0005514402
 H          1.2240596582       -0.8827956116       -0.8910298598
 H          1.2245594121       -0.8819858380        0.8915928961
