  9
        -11.39433939
 C          1.2750296871       -0.2515103903        0.0157771419
 C         -0.0146078523        0.5611373797       -0.0327513531
 O         -1.1686540953       -0.2414999151        0.0563018373
 H          1.3034339818       -0.8524851085        0.9215332576
 H          1.3402742564       -0.9161467121       -0.8447996049
 H          2.1344358883        0.4130063342        0.0066825277
 H         -0.0399840886        1.1639701613       -0.9532062435
 H         -0.0683983112        1.2379837089        0.8229120419
 H         -1.1388185046       -0.9025403378       -0.6445778426
