  9
  -11.3943393900000       0.157925504121476      !mtd12
 C          1.2750296871       -0.2515103903        0.0157771419
 C         -0.0146078523        0.5611373797       -0.0327513531
 O         -1.1686540953       -0.2414999151        0.0563018373
 H          1.3034339818       -0.8524851085        0.9215332576
 H          1.3402742564       -0.9161467121       -0.8447996049
 H          2.1344358883        0.4130063342        0.0066825277
 H         -0.0399840886        1.1639701613       -0.9532062435
 H         -0.0683983112        1.2379837089        0.8229120419
 H         -1.1388185046       -0.9025403378       -0.6445778426
  9
  -11.3943393800000       0.157923832970641      !md5
 C          1.2750135534       -0.2515220028        0.0157880923
 C         -0.0145921002        0.5611484817       -0.0327429098
 O         -1.1686454044       -0.2415212303        0.0563132074
 H          1.3406310856       -0.9156246336       -0.8451619819
 H          2.1343914887        0.4130515958        0.0074268896
 H          1.3030766810       -0.8530505581        0.9211624331
 H         -0.0399354858        1.1639607531       -0.9532204038
 H         -0.0684228537        1.2379888901        0.8229167115
 H         -1.1389311051       -0.9021935601       -0.6449911140
  9
  -11.3943393800000       0.157923832970641      !md1
 C          1.2750262090       -0.2515266670        0.0157854156
 C         -0.0146143189        0.5611369355       -0.0327443999
 O         -1.1686230072       -0.2415078314        0.0563088015
 H          2.1344013524        0.4130097475        0.0073396427
 H          1.3030818011       -0.8529795730        0.9212388527
 H          1.3405526395       -0.9157164957       -0.8451100151
 H         -0.0400001994        1.1640065937       -0.9531699272
 H         -0.0683658072        1.2379568014        0.8229308515
 H         -1.1391015462       -0.9021641039       -0.6449772751
  9
  -11.3943393800000       0.157923832970641      !mtd12
 C          1.2744719382       -0.2542236508       -0.0151699896
 C         -0.0151501615        0.5584853051       -0.0637040446
 O         -1.1691018435       -0.2441981790        0.0253515440
 H          1.3709664574       -0.7605748448        0.9444716361
 H          1.2736037203       -1.0025704688       -0.8040442591
 H          2.1317857332        0.3992295880       -0.1502663425
 H         -0.0996737395        1.0782177925       -1.0206917073
 H         -0.0113640838        1.3107425812        0.7396789793
 H         -1.1141580761       -0.7744864436        0.8283519732
  9
  -11.3943393700000       0.157922161837788      !gc
 C          1.2744990308       -0.2541698177       -0.0151631914
 C         -0.0151276260        0.5584575478       -0.0636901038
 O         -1.1691930624       -0.2441652905        0.0253621598
 H          2.1318000073        0.3992796968       -0.1504045906
 H          1.3711077528       -0.7603785539        0.9445258012
 H          1.2736305934       -1.0026353313       -0.8039383684
 H         -0.0996055473        1.0783619919       -1.0206238707
 H         -0.0112824721        1.3105433032        0.7398085188
 H         -1.1136337268       -0.7754457143        0.8277171306
  9
  -11.3943393700000       0.157922161837788      !gc
 C          1.2745319788       -0.2542166808       -0.0151879993
 C         -0.0151222134        0.5584383292       -0.0637168392
 O         -1.1691646614       -0.2442018346        0.0253365354
 H          1.2739084884       -1.0024304334       -0.8041909101
 H          2.1318136896        0.3993552065       -0.1499630442
 H          1.3708403003       -0.7607116251        0.9443633466
 H         -0.0996292794        1.0782899290       -1.0206650552
 H         -0.0112569275        1.3105453854        0.7397488210
 H         -1.1145676397       -0.7739554834        0.8288124593
  9
  -11.3922580500000       1.745559412604654E-002 !gc
 C          1.2713545766       -0.2438385093       -0.0005526548
 C         -0.0158210025        0.5646925861       -0.0487663605
 O         -1.1790804917       -0.2362656358        0.0402974834
 H          1.3397134389       -0.7956624966        0.9359427712
 H          1.3091036744       -0.9495897224       -0.8292160465
 H          2.1298968234        0.4184254521       -0.0732072140
 H         -0.0691586893        1.1288609192       -0.9886907254
 H         -0.0386726921        1.2828558984        0.7809980939
 H         -0.9161780607       -1.1579825228        0.1222186983
  9
  -11.3918674300000       1.154564267925703E-002 !md5
 C          1.2591484052       -0.2891564782        0.0037128473
 C          0.0038185109        0.5674280288       -0.0492015334
 O         -1.1209804428       -0.2822031308        0.0434257746
 H          1.2548589686       -0.9977007165       -0.8197898544
 H          2.1429994297        0.3386056793       -0.0655526021
 H          1.2845099698       -0.8455834748        0.9364245149
 H         -0.0225536860        1.1333966052       -0.9922708139
 H          0.0074564176        1.2871942796        0.7828686046
 H         -1.9234285873        0.2476566095        0.0110617636
  9
  -11.3918674200000       1.154552050451981E-002 !mtd7
 C          1.2591727207       -0.2891334161        0.0036965985
 C          0.0038436809        0.5673919443       -0.0492126748
 O         -1.1210334467       -0.2821952577        0.0434121508
 H          2.1431066708        0.3386261039       -0.0650454288
 H          1.2841995726       -0.8459610461        0.9361764842
 H          1.2550606475       -0.9973182427       -0.8201138046
 H         -0.0224575503        1.1333617899       -0.9922854946
 H          0.0075960056        1.2870941439        0.7828980240
 H         -1.9234111632        0.2477964416        0.0116545014
  9
  -11.3918674200000       1.154552050451981E-002 !mtd12
 C          1.2591349699       -0.2891550395        0.0036837261
 C          0.0037956578        0.5674022086       -0.0492281345
 O         -1.1209577923       -0.2821884862        0.0433948986
 H          1.2843854229       -0.8457917769        0.9362742229
 H          1.2549687200       -0.9974945187       -0.8200229068
 H          2.1429751146        0.3386521912       -0.0654237260
 H         -0.0225496751        1.1334136822       -0.9923089066
 H          0.0075574350        1.2871654646        0.7828837797
 H         -1.9234216157        0.2476820214        0.0124933090
  9
  -11.3886068300000       3.663954766813153E-004 !gc
 C          1.2641854028       -0.2909098601        0.0037812238
 C          0.0015694743        0.5721909350       -0.0495740338
 O         -1.1217078539       -0.2822008375        0.0434397540
 H          1.8553202789       -0.1853510436       -0.9007664598
 H          1.8837090289       -0.0351373112        0.8579235638
 H          0.9578360629       -1.3292516836        0.0974303878
 H         -0.0388063817        1.1402133662       -0.9897794678
 H         -0.0088449042        1.2934810793        0.7798209306
 H         -1.9270483848        0.2437141009        0.0115149494
