  10
        -10.75486053
 C         -1.2745268045        0.2646847943        0.0000034042
 C          0.0125865165       -0.5653565102       -0.0000049204
 N          1.2384913859        0.2129495236       -0.0000042925
 H         -2.1452476583       -0.3859060236        0.0005914964
 H         -1.3175848440        0.9002552808        0.8834201851
 H         -1.3181542511        0.8994971387       -0.8839204388
 H          0.0337314969       -1.2079179354       -0.8845851135
 H          0.0338022375       -1.2080893425        0.8844654284
 H          1.2702789310        0.8130029993       -0.8182184619
 H          1.2703270832        0.8128783782        0.8183246253
  10
        -10.75304832
 C         -1.2511040237        0.3046165749       -0.0173323740
 C         -0.0076961462       -0.5749391016       -0.0173408397
 N          1.1853354810        0.2576111148       -0.0173398190
 H         -1.2120148982        0.9934583892       -0.8563844996
 H         -2.1465832483       -0.3058028935       -0.0987143365
 H         -1.3065968694        0.8838786684        0.9021877303
 H          0.0159736799       -1.1768545063       -0.9304816711
 H         -0.0528017914       -1.2683352277        0.8412676734
 H          1.2093865530        0.8317783258        0.8194439567
 H          2.0210722908       -0.3167275122       -0.0231531496
  10
        -10.74985460
 C         -1.2633364285        0.2804373764        0.0182988305
 C         -0.0005265995       -0.5728464057        0.0182904508
 N          1.2216645310        0.2340925862        0.0182912458
 H         -2.1462185298       -0.3518407977        0.0699827666
 H         -1.2638621186        0.9469721407        0.8780467970
 H         -1.3213877567        0.8807869541       -0.8889347500
 H         -0.0241588359       -1.2515019939       -0.8425129054
 H          0.0137714995       -1.1922913780        0.9239540503
 H          0.9962164186        1.2170791466       -0.0797552453
 H          1.8295466968       -0.0177721606       -0.7510018164
