  10
  -10.7548605300000       0.128648498118049      !gc
 C         -1.2745268045        0.2646847943        0.0000034042
 C          0.0125865165       -0.5653565102       -0.0000049204
 N          1.2384913859        0.2129495236       -0.0000042925
 H         -2.1452476583       -0.3859060236        0.0005914964
 H         -1.3175848440        0.9002552808        0.8834201851
 H         -1.3181542511        0.8994971387       -0.8839204388
 H          0.0337314969       -1.2079179354       -0.8845851135
 H          0.0338022375       -1.2080893425        0.8844654284
 H          1.2702789310        0.8130029993       -0.8182184619
 H          1.2703270832        0.8128783782        0.8183246253
  10
  -10.7548605200000       0.128647136773368      !md4
 C         -1.2745223813        0.2646885549       -0.0000027045
 C          0.0126067384       -0.5653418249       -0.0000110291
 N          1.2384432020        0.2129360864       -0.0000104012
 H         -2.1451526340       -0.3859377744        0.0003764497
 H         -1.3175976537        0.9000964675        0.8835066628
 H         -1.3180168737        0.8995717324       -0.8838355897
 H          0.0337025564       -1.2080229103       -0.8845276742
 H          0.0336674146       -1.2079695112        0.8845180713
 H          1.2705340664        0.8127815977        0.8184413105
 H          1.2703920353        0.8131678120       -0.8181710233
  10
  -10.7548605200000       0.128647136773368      !mtd3
 C         -1.2745158619        0.2646868674        0.0000050942
 C          0.0126187498       -0.5653356187       -0.0000032304
 N          1.2384419063        0.2129303885       -0.0000026025
 H         -1.3176202993        0.9000444394        0.8835697831
 H         -1.3180430500        0.8997263768       -0.8838772105
 H         -2.1451187697       -0.3859168355        0.0002786227
 H          0.0336765065       -1.2079921931       -0.8845495535
 H          0.0337443644       -1.2080425794        0.8844929480
 H          1.2703143851        0.8128539302        0.8183462822
 H          1.2703729517        0.8130396103       -0.8182469171
  10
  -10.7548605000000       0.128644414127466      !mtd8
 C         -1.2745485838        0.2646724428        0.0000229301
 C          0.0125951501       -0.5653707349        0.0000146053
 N          1.2385092050        0.2129318153        0.0000152332
 H         -1.3177967668        0.8996712064       -0.8837277173
 H         -2.1453026768       -0.3858760954        0.0000935930
 H         -1.3176786710        0.9001071217        0.8836001681
 H          0.0337113920       -1.2078371529       -0.8846424736
 H          0.0336939542       -1.2080025818        0.8845286870
 H          1.2704374487        0.8127203056       -0.8185591247
 H          1.2699973402        0.8135004877        0.8180478695
  10
  -10.7548604800000       0.128641691539184      !mtd6
 C         -1.2745310251        0.2646919493       -0.0000275147
 C          0.0125849070       -0.5653622886       -0.0000358394
 N          1.2384970014        0.2129576785       -0.0000352115
 H         -1.3179145323        0.8993541448       -0.8840269330
 H         -2.1451087121       -0.3861206527        0.0005283819
 H         -1.3174512593        0.9001743260        0.8835453532
 H          0.0336506052       -1.2079964278       -0.8845904076
 H          0.0337057843       -1.2079594194        0.8844997535
 H          1.2707695584        0.8121147285        0.8188999786
 H          1.2694929897        0.8140240635       -0.8176118125
  10
  -10.7548604500000       0.128637607764920      !mtd10
 C         -1.2744338382        0.2647098622        0.0000538664
 C          0.0125608455       -0.5654622793        0.0000455414
 N          1.2384483966        0.2130013471        0.0000461702
 H         -1.3180858279        0.8992762115        0.8841637570
 H         -1.3173107413        0.9006175037       -0.8831258558
 H         -2.1451403006       -0.3857407753       -0.0007633194
 H          0.0337631628       -1.2080634809       -0.8845059700
 H          0.0335947961       -1.2081553763        0.8845507643
 H          1.2709652827        0.8114316308       -0.8192840850
 H          1.2691620928        0.8145963003        0.8171384583
  10
  -10.7530483200000       1.890473823298295E-002 !gc
 C         -1.2511040237        0.3046165749       -0.0173323740
 C         -0.0076961462       -0.5749391016       -0.0173408397
 N          1.1853354810        0.2576111148       -0.0173398190
 H         -1.2120148982        0.9934583892       -0.8563844996
 H         -2.1465832483       -0.3058028935       -0.0987143365
 H         -1.3065968694        0.8838786684        0.9021877303
 H          0.0159736799       -1.1768545063       -0.9304816711
 H         -0.0528017914       -1.2683352277        0.8412676734
 H          1.2093865530        0.8317783258        0.8194439567
 H          2.0210722908       -0.3167275122       -0.0231531496
  10
  -10.7530483200000       1.890473823298295E-002 !mtd12
 C         -1.2511398597        0.3045827426       -0.0173430646
 C         -0.0077248382       -0.5749117050       -0.0173515300
 N          1.1854081437        0.2575942912       -0.0173505099
 H         -2.1466702976       -0.3058196236       -0.0982639360
 H         -1.3062864174        0.8841173068        0.9020633942
 H         -1.2122549121        0.9931983808       -0.8565749124
 H          0.0159145379       -1.1767467642       -0.9305292792
 H         -0.0528397994       -1.2683570173        0.8412149950
 H          2.0211255478       -0.3168423578       -0.0225188471
 H          1.2092062410        0.8321558094        0.8191776521
  10
  -10.7530483200000       1.890473823298295E-002 !mtd2
 C         -1.2510532048        0.3046229574        0.0173402300
 C         -0.0077234723       -0.5749556943        0.0173317644
 N          1.1853195157        0.2576385106        0.0173327853
 H         -1.3062495940        0.8841802148       -0.9019984253
 H         -2.1465337170       -0.3058756667        0.0982086860
 H         -1.2121943463        0.9931477663        0.8566708596
 H         -0.0529599604       -1.2684522258       -0.8412221983
 H          0.0158406417       -1.1767420449        0.9305675447
 H          1.2094213934        0.8315945493       -0.8196075551
 H          2.0210532085       -0.3167163922        0.0233276617
  10
  -10.7530483100000       1.890453818509560E-002 !mtd7
 C         -1.2510685420        0.3046102111       -0.0173388176
 C         -0.0077233772       -0.5749584741       -0.0173472832
 N          1.1853383365        0.2576256004       -0.0173462624
 H         -1.3066842151        0.8835805686        0.9023674245
 H         -1.2118528044        0.9936548680       -0.8562442932
 H         -2.1464646793       -0.3058600435       -0.0990369162
 H          0.0159705355       -1.1767119751       -0.9305697070
 H         -0.0528030219       -1.2684490182        0.8411895429
 H          2.0210334195       -0.3167763318       -0.0225322370
 H          1.2090984773        0.8320625677        0.8192350066
  10
  -10.7530483000000       1.890433813928961E-002 !mtd5
 C         -1.2512182046        0.3045622088        0.0173497518
 C         -0.0077060163       -0.5748201258        0.0173412867
 N          1.1854839106        0.2575600724        0.0173423060
 H         -1.2126825240        0.9927662683        0.8568302363
 H         -1.3063440856        0.8843825448       -0.9019540876
 H         -2.1467275285       -0.3059937769        0.0978941810
 H         -0.0528742227       -1.2681845956       -0.8412489328
 H          0.0159235450       -1.1766941167        0.9305118564
 H          1.2094560043        0.8320104265       -0.8192409363
 H          2.0211001128       -0.3169521189        0.0227950029
  10
  -10.7530483000000       1.890433813928961E-002 !md2
 C         -1.2511521880        0.3045941444       -0.0173283898
 C         -0.0077166657       -0.5748964098       -0.0173368552
 N          1.1853997659        0.2575975782       -0.0173358351
 H         -1.2121272135        0.9935729472       -0.8563090169
 H         -2.1466987292       -0.3057921199       -0.0987612546
 H         -1.3066295271        0.8836300454        0.9022385721
 H          0.0158837851       -1.1766382874       -0.9305302749
 H         -0.0527764799       -1.2684231738        0.8411709468
 H          2.0212399328       -0.3167630597       -0.0232280572
 H          1.2094690828        0.8317555591        0.8194344628
  10
  -10.7530482900000       1.890413809563600E-002 !md4
 C         -1.2511860989        0.3045605787       -0.0173358628
 C         -0.0076975891       -0.5748486167       -0.0173443280
 N          1.1854449448        0.2575552565       -0.0173433084
 H         -2.1467461045       -0.3057295604       -0.0991084259
 H         -1.3066570521        0.8833352447        0.9024838058
 H         -1.2119111206        0.9938075012       -0.8560538983
 H          0.0158365667       -1.1766634052       -0.9305530619
 H         -0.0529492633       -1.2683739341        0.8411603885
 H          1.2091586549        0.8322113906        0.8191008257
 H          2.0211781003       -0.3168267308       -0.0227322924
  10
  -10.7530482900000       1.890413809563600E-002 !gc
 C         -1.2511738713        0.3045641996       -0.0173323422
 C         -0.0076736349       -0.5748385844       -0.0173408074
 N          1.1854263581        0.2575477401       -0.0173397878
 H         -1.3056369699        0.8849787176        0.9015124593
 H         -1.2129619084        0.9923666705       -0.8572707221
 H         -2.1468065424       -0.3058934533       -0.0969834008
 H          0.0157977586       -1.1767078819       -0.9305155766
 H         -0.0530039276       -1.2684047442        0.8411735624
 H          1.2091857509        0.8321850965        0.8190680085
 H          2.0211627451       -0.3168221494       -0.0228198255
  10
  -10.7530482900000       1.890413809563600E-002 !gc
 C         -1.2511779013        0.3045649557        0.0173418825
 C         -0.0076795997       -0.5748315523        0.0173334174
 N          1.1854294472        0.2575506092        0.0173344369
 H         -2.1468229691       -0.3058887865        0.0969491486
 H         -1.2129617287        0.9923300466        0.8573086274
 H         -1.3056019752        0.8850132133       -0.9014869718
 H         -0.0530478140       -1.2683646863       -0.8412012136
 H          0.0157874437       -1.1767207206        0.9304948157
 H          1.2093087701        0.8320516127       -0.8191805563
 H          2.0211513554       -0.3168511054        0.0230003809
  10
  -10.7530482900000       1.890413809563600E-002 !gc
 C         -1.2511740750        0.3045645362        0.0173428808
 C         -0.0076738295       -0.5748385356        0.0173344157
 N          1.1854260801        0.2575480630        0.0173354353
 H         -1.2129577210        0.9923549038        0.8572905797
 H         -1.3056396766        0.8849923741       -0.9014932887
 H         -2.1468072274       -0.3058937137        0.0969879239
 H         -0.0530103402       -1.2683921342       -0.8411893326
 H          0.0158028674       -1.1767203238        0.9305008697
 H          2.0211620380       -0.3168248225        0.0228295168
 H          1.2091955760        0.8321768934       -0.8190797060
  10
  -10.7530482100000       1.890253782243395E-002 !gc
 C         -1.2512045578        0.3045211548        0.0173599094
 C         -0.0076394339       -0.5747697816        0.0173514447
 N          1.1854521271        0.2574859228        0.0173524636
 H         -2.1467630616       -0.3061585921        0.0958487965
 H         -1.2136246029        0.9915381622        0.8579626828
 H         -1.3051170260        0.8857733231       -0.9009651860
 H         -0.0530452586       -1.2682945268       -0.8412143062
 H          0.0158824204       -1.1767235507        0.9304989426
 H          2.0212451149       -0.3167787962        0.0215633311
 H          1.2087593276        0.8328983529       -0.8184901999
  10
  -10.7530480600000       1.889953767534403E-002 !mtd8
 C         -1.2511512368        0.3046240365        0.0173496378
 C         -0.0077577298       -0.5749278843        0.0173411722
 N          1.1854246853        0.2576512060        0.0173421926
 H         -1.3035191156        0.8879287778       -0.8998413687
 H         -2.1468049165       -0.3063546578        0.0932155520
 H         -1.2150832109        0.9898425919        0.8594556258
 H         -0.0526000245       -1.2684935827       -0.8411925323
 H          0.0158319272       -1.1766134888        0.9305876955
 H          2.0210429627       -0.3169960640        0.0232394333
 H          1.2096249441        0.8313019292       -0.8198727874
  10
  -10.7498546000000       6.439298815801705E-004 !mtd12
 C         -1.2633364285        0.2804373764        0.0182988305
 C         -0.0005265995       -0.5728464057        0.0182904508
 N          1.2216645310        0.2340925862        0.0182912458
 H         -2.1462185298       -0.3518407977        0.0699827666
 H         -1.2638621186        0.9469721407        0.8780467970
 H         -1.3213877567        0.8807869541       -0.8889347500
 H         -0.0241588359       -1.2515019939       -0.8425129054
 H          0.0137714995       -1.1922913780        0.9239540503
 H          0.9962164186        1.2170791466       -0.0797552453
 H          1.8295466968       -0.0177721606       -0.7510018164
  10
  -10.7498540100000       6.435279791189312E-004 !gc
 C         -1.2634686097        0.2802300920       -0.0182004713
 C         -0.0003964253       -0.5728981186       -0.0182088509
 N          1.2220248298        0.2338656012       -0.0182080576
 H         -1.3196002280        0.8841074383        0.8866710054
 H         -1.2669798418        0.9431166858       -0.8806505823
 H         -2.1462476777       -0.3527058372       -0.0646061298
 H          0.0141325632       -1.1925926671       -0.9236643381
 H         -0.0235969148       -1.2511809175        0.8426788303
 H          0.9957986634        1.2176309760        0.0696704716
 H          1.8254176853       -0.0107029421        0.7568212395
