! wb97x-v def2-tzvp def2/J RIJCOSX DEFGRID2 scfconv7 GCP(DFT/TZ) printgap
%output
    printlevel normal
end
%cpcm
    smd true
    smdsolvent "water"
end
* xyz 0 1
C -2.0509990442739285 0.3915014879519431 0.6039792249589718
C -1.439031363786168 -0.7669806283891294 -0.17629808641574227
C -0.22072767714911318 -0.3512310529411856 -1.0309100398226596
C 0.8935297387410184 0.17037848759185986 -0.16504656879235716
O 1.0641872141173343 1.377343843571043 -0.0010448784396213104
C 1.7784421156554044 -0.8424853617790707 0.49636053728636587
H -2.331414578551758 1.2123888938361924 -0.0657795649356725
H -1.3554186104047279 0.7909958753114025 1.3499688936619882
H -2.9521619986548777 0.06532139926619474 1.132879393187008
H -2.1845494628039033 -1.1899852618272773 -0.8580835466498751
H -1.1467532681969002 -1.5704316444234279 0.5095996111334551
H 0.134948669288544 -1.224309879970282 -1.5891728667709517
H -0.5177199071878806 0.4330105321873219 -1.7342851231688114
H 2.456935507341571 -1.244810581215445 -0.26736227250008204
H 1.1963758196424497 -1.6888533768343312 0.8738624325933321
H 2.3674983433619263 -0.39055173378058394 1.2960181660019683
*
