! r2scan-3c def2/J RI DEFGRID2 scfconv6 printgap
%output
    printlevel normal
end
* xyz 0 1
C -2.9909560387 0.070439476 0.0234558471
C -1.646406978 0.735249206 0.2834115068
C -0.489244625 -0.1570159235 -0.0841424253
O -0.5771477606 -1.2653271268 -0.5692162677
O 0.6742440443 0.4240736928 0.1887717816
C 1.8739100264 -0.3086784554 -0.1135473591
C 3.0619650768 0.5438963142 0.2872409443
H -3.0812559919 -0.8408469324 0.6089242277
H -3.7992779806 0.7443388846 0.2895045333
H -3.0822580135 -0.1972868366 -1.0260009598
H -1.5361451377 1.0019018175 1.335725962
H -1.5469093312 1.654472771 -0.2966784429
H 1.8482290542 -1.2557710065 0.4355321213
H 1.8790525021 -0.5366937587 -1.1845805368
H 3.050087179 1.4798653803 -0.2631928558
H 3.020909323 0.7624136602 1.3501199113
H 3.9791947853 0.0084612511 0.065757402
*
