! pbe def2-sv(p) def2/J RI DEFGRID1 loosescf d4 GCP(DFT/SV(P)) printgap
%output
    printlevel normal
end
* xyz 0 1
C 2.1029039946 0.4517893476 -1.0387119498
C 1.6427702291 -0.6055759536 -0.0415021209
C 0.2914765763 -0.3281636072 0.6392722292
H 0.2211194662 -1.056000896 1.467866278
C -0.9569579491 -0.5585106406 -0.2479054983
C -2.1988343918 -0.715981783 0.6352538616
C -1.193268743 0.5623492133 -1.2599435022
O 0.3396327383 0.9775402194 1.1851395535
H 3.1570243557 0.3072104358 -1.2627779447
H 1.9705123638 1.4411586348 -0.6101015844
H 1.5485626097 0.3939456623 -1.9694904472
H 1.5927322816 -1.5842593285 -0.5207785579
H 2.3860315792 -0.6602521987 0.7572632884
H -0.7977273143 -1.5016713514 -0.7801519928
H -2.4507015414 0.2253646598 1.1190049606
H -3.0498506121 -1.0186706326 0.0302027448
H -2.0401432824 -1.472740981 1.4007514387
H -1.0259739773 1.5301414015 -0.7933559898
H -2.216959092 0.5238041478 -1.6246923161
H -0.5295351548 0.4745288137 -2.1133930628
H -0.4394300225 1.1098130208 1.7399854587
*
