  15
  -18.1809187800000       6.533002482163261E-002 !mtd2
 C         -2.6578712005        0.5438933698       -0.1409588161
 C         -1.2634031717        0.2892040677        0.4169518859
 C         -0.5430416064       -0.8135415541       -0.3556704126
 C          0.8669238885       -1.0701828295        0.1925438756
 C          1.7103891902        0.0847625106        0.0195614904
 N          2.3719839916        1.0050774290       -0.1293612600
 H         -2.6013300135        0.8548004283       -1.1817717596
 H         -3.2636310737       -0.3583957927       -0.0850644553
 H         -3.1564225204        1.3275061312        0.4238939562
 H         -0.6751693588        1.2082649026        0.3637845488
 H         -1.3403162988        0.0040236773        1.4694494272
 H         -0.4744250749       -0.5335676639       -1.4095071431
 H         -1.1168804465       -1.7410302075       -0.2911928539
 H          0.8206922086       -1.3072169607        1.2596504776
 H          1.3313675415       -1.9117912902       -0.3296456370
  15
  -18.1809187500000       6.532795089776822E-002 !md1
 C         -2.6571438210        0.5432642211        0.1602145475
 C         -1.2664670068        0.2895414084       -0.4073943976
 C         -0.5403815044       -0.8131276527        0.3599979043
 C          0.8652950673       -1.0699388779       -0.1989913991
 C          1.7104135789        0.0846371158       -0.0320682643
 N          2.3733455676        1.0048416568        0.1116950649
 H         -2.5935721274        0.8539049606        1.2006607561
 H         -3.1600778775        1.3267331424       -0.4008958420
 H         -3.2627933721       -0.3593116734        0.1082822191
 H         -1.3505145171        0.0046205683       -1.4594651785
 H         -0.6783352246        1.2088970134       -0.3580942697
 H         -1.1148112600       -1.7405266482        0.2999178413
 H         -0.4637326942       -0.5330289431        1.4132404378
 H          1.3332438738       -1.9120263809        0.3190475431
 H          0.8108194039       -1.3062601036       -1.2658419317
  15
  -18.1809187500000       6.532795089776822E-002 !mtd3
 C         -2.6572870867        0.5434796546        0.1601501741
 C         -1.2664659786        0.2896179177       -0.4071598726
 C         -0.5404149366       -0.8134161866        0.3596936947
 C          0.8654759076       -1.0701036226       -0.1988743891
 C          1.7103906068        0.0846906961       -0.0319636824
 N          2.3733212803        1.0049660477        0.1115889234
 H         -3.2633044592       -0.3587496611        0.1064904123
 H         -2.5940926882        0.8524828319        1.2011650770
 H         -3.1595063536        1.3280613796       -0.4001323768
 H         -1.3502167842        0.0052215174       -1.4593484213
 H         -0.6782707955        1.2088717223       -0.3571835852
 H         -1.1148230011       -1.7408140420        0.2991880543
 H         -0.4640430310       -0.5337445258        1.4130690959
 H          1.3336899944       -1.9118692059        0.3196977544
 H          0.8113429790       -1.3069026237       -1.2656625254
  15
  -18.1809187200000       6.532587703974124E-002 !mtd12
 C         -2.6576260031        0.5440923558       -0.1412455316
 C         -1.2636931636        0.2885576850        0.4175819224
 C         -0.5429336640       -0.8132436186       -0.3560120678
 C          0.8667890299       -1.0700348092        0.1927875530
 C          1.7103867335        0.0848231258        0.0198089703
 N          2.3720392548        1.0049937483       -0.1297860759
 H         -3.2638452322       -0.3579665843       -0.0863798250
 H         -3.1562141995        1.3275720552        0.4237814116
 H         -2.6001643819        0.8556184444       -1.1818593443
 H         -0.6752785207        1.2076329399        0.3661789939
 H         -1.3415799128        0.0019617232        1.4696534829
 H         -0.4738067079       -0.5321522724       -1.4095240715
 H         -1.1166899658       -1.7408698586       -0.2928492738
 H          0.8202653548       -1.3070760022        1.2598649756
 H          1.3313143831       -1.9116694907       -0.3292390606
  15
  -18.1809186900000       6.532380324730401E-002 !mtd5
 C         -2.6577180325        0.5443301405       -0.1413088253
 C         -1.2638895050        0.2882743364        0.4176518875
 C         -0.5427921472       -0.8132267410       -0.3559717265
 C          0.8669416589       -1.0700219470        0.1928611680
 C          1.7103562018        0.0848195021        0.0197047791
 N          2.3720615248        1.0049549741       -0.1298015801
 H         -3.1561659007        1.3279446185        0.4235572835
 H         -2.5999623829        0.8558603395       -1.1818349996
 H         -3.2641934867       -0.3574759651       -0.0866307360
 H         -0.6753896553        1.2072632384        0.3666214345
 H         -1.3420584330        0.0014221269        1.4695948842
 H         -0.4734489975       -0.5317069447       -1.4094640501
 H         -1.1165360520       -1.7410037528       -0.2932385999
 H          0.8202318975       -1.3067751576        1.2599906000
 H          1.3315093669       -1.9117069479       -0.3289489378
  15
  -18.1809186700000       6.532242075583225E-002 !md4
 C         -2.6577422743        0.5428099968        0.1601170754
 C         -1.2668796046        0.2896798493       -0.4073807396
 C         -0.5402795342       -0.8125747965        0.3601621705
 C          0.8652795570       -1.0698552104       -0.1989025847
 C          1.7106903973        0.0847803075       -0.0327871843
 N          2.3740447985        1.0044936420        0.1120196196
 H         -3.1611044131        1.3259042540       -0.4012328315
 H         -3.2626489727       -0.3602335581        0.1082338194
 H         -2.5942384216        0.8536967625        1.2006220368
 H         -1.3510020969        0.0044409233       -1.4593100722
 H         -0.6791581894        1.2093059092       -0.3581877265
 H         -1.1145944813       -1.7400688690        0.3007414289
 H         -0.4633256005       -0.5319463897        1.4132028655
 H          1.3335231653       -1.9112935656        0.3202859869
 H          0.8107774777       -1.3074958100       -1.2654640990
  15
  -18.1807541800000       5.488679865205964E-002 !md3
 C         -2.9628045705        0.3342066423       -0.1396266854
 C         -1.7523414508       -0.5094512370        0.2398729183
 C         -0.4455287478        0.2063512763       -0.0921501644
 C          0.7714478248       -0.6446962422        0.2919322555
 C          1.9982822374        0.0383160880       -0.0261279580
 N          2.9619819693        0.5957092184       -0.2857632158
 H         -3.8839727520       -0.1897831883        0.1032837548
 H         -2.9532575878        1.2795717339        0.3983340267
 H         -2.9601715751        0.5479286223       -1.2061731888
 H         -1.7844918501       -0.7290003596        1.3099480348
 H         -1.7913825459       -1.4612105851       -0.2957800584
 H         -0.4031437447        1.1580561834        0.4426820439
 H         -0.4093381196        0.4250733867       -1.1619344188
 H          0.7615408091       -0.8576716863        1.3650948845
 H          0.7543533171       -1.5960324976       -0.2482595857
  15
  -18.1807541400000       5.488447546415385E-002 !mtd1
 C         -2.9627439254        0.3339321738       -0.1401337365
 C         -1.7522431209       -0.5085954460        0.2416567420
 C         -0.4454796800        0.2057205017       -0.0937984940
 C          0.7713780721       -0.6444964664        0.2924812455
 C          1.9983316013        0.0381726147       -0.0258877597
 N          2.9618005807        0.5957091808       -0.2861194172
 H         -2.9604829182        0.5438878807       -1.2074299494
 H         -3.8838022926       -0.1892874661        0.1047404623
 H         -2.9528886599        1.2812124428        0.3945738518
 H         -1.7837800277       -0.7242531753        1.3125438246
 H         -1.7918058995       -1.4623149282       -0.2904622343
 H         -0.4023955480        1.1592494704        0.4377308010
 H         -0.4099403016        0.4207319320       -1.1643549576
 H          0.7606571067       -0.8556553081        1.3659648479
 H          0.7548589891       -1.5967203502       -0.2461379041
  15
  -18.1807541000000       5.488215237458140E-002 !mtd7
 C         -2.9629552160        0.3339567199       -0.1398644180
 C         -1.7523364190       -0.5096568128        0.2392311012
 C         -0.4455351481        0.2072477478       -0.0903991517
 C          0.7714541902       -0.6450159333        0.2910375908
 C          1.9983554444        0.0381082047       -0.0264528556
 N          2.9620861482        0.5958040023       -0.2854026634
 H         -2.9535541860        1.2791509211        0.3984336445
 H         -2.9603783413        0.5480845814       -1.2063583261
 H         -3.8840509893       -0.1902886568        0.1028375162
 H         -1.7852637394       -0.7311210509        1.3088766893
 H         -1.7904765173       -1.4604870198       -0.2981141851
 H         -0.4031993018        1.1572311303        0.4474974180
 H         -0.4092978866        0.4294310099       -1.1594802436
 H          0.7622521972       -0.8601721683        1.3637108933
 H          0.7535202257       -1.5951823275       -0.2510702286
  15
  -18.1801566100000       2.916377527821787E-002 !mtd3
 C         -2.1645517206        0.5642111887       -0.5601834755
 C         -1.3307891567        0.2488499819        0.6768192505
 C         -0.4939645878       -1.0227819067        0.5318389767
 C          0.6159660184       -0.8978690083       -0.5213950205
 C          1.5382875415        0.1563995756       -0.1870315527
 N          2.2656737967        0.9941900608        0.0887669481
 H         -1.5339449185        0.8215146283       -1.4078746305
 H         -2.7837819213       -0.2885420570       -0.8326906794
 H         -2.8174842242        1.4110582540       -0.3639561539
 H         -0.6706782571        1.0909235722        0.8966114488
 H         -2.0001891593        0.1208874580        1.5305502218
 H         -1.1423422069       -1.8569916557        0.2535240079
 H         -0.0373720165       -1.2589746991        1.4960110262
 H          1.1778397721       -1.8344084160       -0.5859024149
 H          0.1901290054       -0.6864441739       -1.5054222295
  15
  -18.1801565900000       2.916315806556699E-002 !mtd4
 C         -2.1460855606        0.5262480679        0.6577409642
 C         -1.3499100430        0.2893287245       -0.6208448324
 C         -0.5102676284       -0.9880304296       -0.5801186732
 C          0.6300873416       -0.9282234539        0.4459890817
 C          1.5431245730        0.1458075839        0.1514278662
 N          2.2626245370        0.9999784554       -0.0928505031
 H         -2.8043871852        1.3825364854        0.5338028308
 H         -2.7571045119       -0.3426887355        0.8954404100
 H         -1.4903319495        0.7317468318        1.5004951879
 H         -2.0445212675        0.2139990542       -1.4605889099
 H         -0.6959055462        1.1440876833       -0.8073851590
 H         -0.0822546730       -1.1629082737       -1.5701178599
 H         -1.1509320054       -1.8386857762       -0.3357786532
 H          0.2333496128       -0.7792373500        1.4533346122
 H          1.1927981810       -1.8664216820        0.4353060509
  15
  -18.1801565500000       2.916192367956204E-002 !mtd5
 C         -2.1641885708        0.5645115535       -0.5601851329
 C         -1.3304150868        0.2489680569        0.6767337003
 C         -0.4939565111       -1.0229290108        0.5318110701
 C          0.6161145456       -0.8983340986       -0.5212842742
 C          1.5382466814        0.1560782904       -0.1870601946
 N          2.2647803527        0.9946342515        0.0887966150
 H         -2.8161509226        1.4121964689       -0.3643206379
 H         -1.5335841348        0.8205977398       -1.4081719128
 H         -2.7843572172       -0.2877128862       -0.8319893259
 H         -0.6699479108        1.0908002362        0.8962813729
 H         -1.9997121258        0.1213387465        1.5305792724
 H         -1.1426163834       -1.8568691848        0.2533530737
 H         -0.0375503537       -1.2593829646        1.4960153032
 H          1.1779214090       -1.8349069074       -0.5855323599
 H          0.1904251846       -0.6870735606       -1.5053830952
  15
  -18.1801565400000       2.916161509119719E-002 !mtd10
 C         -2.1466277182        0.5259089715        0.6577502603
 C         -1.3502295423        0.2892979337       -0.6206899616
 C         -0.5101682840       -0.9877691781       -0.5803098188
 C          0.6299428982       -0.9278511287        0.4461200925
 C          1.5433294000        0.1458449924        0.1513051322
 N          2.2633913066        0.9996787619       -0.0928521395
 H         -1.4909656617        0.7294465458        1.5011167964
 H         -2.8035297451        1.3832613514        0.5345677869
 H         -2.7589378003       -0.3423874009        0.8942056816
 H         -2.0447620621        0.2138644296       -1.4604817901
 H         -0.6965002885        1.1442932463       -0.8071471159
 H         -0.0817560750       -1.1620620750       -1.5702818787
 H         -1.1505317353       -1.8388156001       -0.3364884224
 H          0.2329940208       -0.7783914721        1.4533424417
 H          1.1924090608       -1.8662041138        0.4359206172
  15
  -18.1801565300000       2.916130650620742E-002 !mtd4
 C         -2.1442470707        0.5282681166        0.6577036974
 C         -1.3498735836        0.2880602272       -0.6213601856
 C         -0.5106909338       -0.9895924060       -0.5793496495
 C          0.6304678709       -0.9288123595        0.4458297779
 C          1.5422478850        0.1462329213        0.1511690834
 N          2.2613315417        1.0009380008       -0.0926924836
 H         -2.7570617946       -0.3390601117        0.8969618732
 H         -1.4870581072        0.7330755843        1.4995238671
 H         -2.8006660399        1.3860725311        0.5335403212
 H         -2.0456604575        0.2113575953       -1.4599888735
 H         -0.6957449262        1.1421090473       -0.8105510257
 H         -0.0833988585       -1.1661826322       -1.5693748922
 H         -1.1515371820       -1.8396318045       -0.3332614744
 H          0.2342570730       -0.7806600770        1.4534372008
 H          1.1941632142       -1.8663796777        0.4344289534
  15
  -18.1801565200000       2.916099792437343E-002 !mtd11
 C         -2.1617110013        0.5661790534       -0.5606090766
 C         -1.3310470960        0.2473090096        0.6775722123
 C         -0.4943800498       -1.0242935415        0.5315657351
 C          0.6159232656       -0.8983250971       -0.5211403782
 C          1.5370692820        0.1569495311       -0.1867208809
 N          2.2643120507        0.9951600954        0.0882230236
 H         -2.7806486616       -0.2855737622       -0.8369585963
 H         -2.8146904924        1.4127596309       -0.3636804911
 H         -1.5289283113        0.8255162697       -1.4060432377
 H         -0.6711441277        1.0885752254        0.9010090584
 H         -2.0024464201        0.1174748724        1.5294296762
 H         -1.1426878622       -1.8582012189        0.2521908624
 H         -0.0381789585       -1.2614039543        1.4956996723
 H          1.1787496121       -1.8343588949       -0.5852031935
 H          0.1902750482       -0.6874376207       -1.5054159769
  15
  -18.1800538200000       2.615801170938062E-002 !mtd6
 C         -2.5686393501        0.5317010928        0.3335909770
 C         -1.8192946072       -0.7177157594       -0.1154712895
 C         -0.3950939632       -0.4289541523       -0.5889772461
 C          0.5115766950        0.0632289062        0.5469630194
 C          1.8662473133        0.2193584223        0.0856749256
 N          2.9371114764        0.3378589193       -0.2967119040
 H         -2.1236271010        0.9616392574        1.2277342711
 H         -2.5614089276        1.2836580710       -0.4527527395
 H         -3.6032609475        0.2862050671        0.5609991222
 H         -1.7907191151       -1.4403656179        0.7037265137
 H         -2.3651426749       -1.1787744012       -0.9415189916
 H         -0.4183153632        0.3225949214       -1.3814837731
 H          0.0334020578       -1.3418661419       -1.0097937446
 H          0.1669219020        1.0288181310        0.9254110209
 H          0.5078341388       -0.6561631252        1.3714588595
  15
  -18.1800537900000       2.615718131430115E-002 !mtd13
 C         -2.5680436727        0.5324990551        0.3338662886
 C         -1.8197001055       -0.7172496401       -0.1159366763
 C         -0.3951939720       -0.4293995902       -0.5890805912
 C          0.5118943057        0.0606846082        0.5474042940
 C          1.8661183636        0.2191938061        0.0856018403
 N          2.9367582701        0.3397728437       -0.2968327866
 H         -2.5604859837        1.2848011166       -0.4521863996
 H         -3.6027832833        0.2876303641        0.5614136917
 H         -2.1224949086        0.9617606175        1.2281051494
 H         -1.7918949141       -1.4405040334        0.7027152333
 H         -2.3658223450       -1.1772092238       -0.9423754752
 H         -0.4176666634        0.3230313109       -1.3807815203
 H          0.0324201454       -1.3422686616       -1.0108818023
 H          0.1667052627        1.0251295285        0.9283656032
 H          0.5092923455       -0.6606964171        1.3701949424
  15
  -18.1800537800000       2.615690452189775E-002 !mtd6
 C         -2.5684606426        0.5320647717        0.3330164728
 C         -1.8193345953       -0.7179887297       -0.1146442475
 C         -0.3951343547       -0.4300442838       -0.5886594909
 C          0.5113857407        0.0642673371        0.5464599988
 C          1.8661204848        0.2198286953        0.0852448767
 N          2.9373087629        0.3373687122       -0.2963886883
 H         -3.6031447240        0.2870798922        0.5604014450
 H         -2.1236022308        0.9627996986        1.2268345788
 H         -2.5608662741        1.2831961916       -0.4540643150
 H         -1.7907864896       -1.4396270296        0.7054443145
 H         -2.3653206931       -1.1799951451       -0.9400708330
 H         -0.4183242765        0.3200361173       -1.3825492255
 H          0.0334013779       -1.3437178658       -1.0077782584
 H          0.1664849965        1.0304304611        0.9232072392
 H          0.5077158226       -0.6537128193        1.3721870480
  15
  -18.1800537600000       2.615635094568118E-002 !mtd10
 C         -2.5728023811        0.1328587866       -0.5953925254
 C         -1.8159463776       -0.4044269036        0.6140956826
 C         -0.3890566409        0.1328622731        0.7194487865
 C          0.5071461108       -0.3549338966       -0.4266909122
 C          1.8647950608        0.0826229453       -0.2324469901
 N          2.9380034142        0.4383167333       -0.0630260717
 H         -2.5631729769        1.2208437521       -0.5987232429
 H         -2.1353403957       -0.2198977588       -1.5263010756
 H         -3.6079586507       -0.1988359720       -0.5665964425
 H         -2.3537392746       -0.1208749485        1.5214470271
 H         -1.7915293736       -1.4961518867        0.5739343989
 H          0.0457158242       -0.1921451720        1.6678383086
 H         -0.4085049235        1.2251287484        0.7204100895
 H          0.4992333358       -1.4482203765       -0.4728835514
 H          0.1564541103        0.0369318071       -1.3848566078
  15
  -18.1800537200000       2.615524382849329E-002 !mtd10
 C         -2.5727764853        0.1324620795       -0.5955124439
 C         -1.8159150099       -0.4039931313        0.6142948294
 C         -0.3888754710        0.1329152739        0.7195867952
 C          0.5069981680       -0.3547313886       -0.4270142647
 C          1.8647318336        0.0824179165       -0.2323777626
 N          2.9379536909        0.4381786001       -0.0629874593
 H         -2.1367467737       -0.2228577830       -1.5261049805
 H         -3.6086081393       -0.1970215744       -0.5653405363
 H         -2.5609068208        1.2204265496       -0.6006878432
 H         -2.3536206538       -0.1195744479        1.5214283283
 H         -1.7918370278       -1.4957874906        0.5749834059
 H          0.0461866583       -0.1924864050        1.6677094162
 H         -0.4080795159        1.2251741999        0.7208002048
 H          0.4987093596       -1.4479463543       -0.4737366785
 H          0.1564266949        0.0377278587       -1.3848794178
  15
  -18.1800537000000       2.615469028742310E-002 !gc
 C         -2.5722312512        0.1366330047       -0.5947486312
 C         -1.8162056284       -0.4067628123        0.6124633606
 C         -0.3887989395        0.1286541501        0.7208834435
 C          0.5071325405       -0.3541596275       -0.4275020266
 C          1.8644916853        0.0837339912       -0.2326108703
 N          2.9376507031        0.4391080047       -0.0625347070
 H         -3.6088174204       -0.1905935133       -0.5655982728
 H         -2.5578799384        1.2245819117       -0.5952911143
 H         -2.1373957198       -0.2157258152       -1.5270280186
 H         -2.3540267172       -0.1268010108        1.5208799117
 H         -1.7928428013       -1.4983295969        0.5673841601
 H          0.0455529670       -0.2014097676        1.6677003096
 H         -0.4072290123        1.2209050028        0.7272320536
 H          0.5001654554       -1.4471425186       -0.4776920065
 H          0.1555218470        0.0408377101       -1.3838453523
  15
  -18.1797305700000       1.858015426686756E-002 !mtd6
 C         -1.5482137254        1.1376390202        0.0509672708
 C         -1.7226911790       -0.3695548678        0.1876760054
 C         -0.5617108952       -1.1710254375       -0.4005159228
 C          0.7567803275       -0.9908160196        0.3679277396
 C          1.4358743813        0.2332847074        0.0293618669
 N          1.9984219081        1.1879528079       -0.2532523255
 H         -2.4306229755        1.6527663987        0.4237141023
 H         -0.6868506385        1.4877905571        0.6138578496
 H         -1.4052961390        1.4121025354       -0.9918451841
 H         -1.8424448125       -0.6290369801        1.2430118602
 H         -2.6379884832       -0.6691877774       -0.3286917733
 H         -0.4131154120       -0.8873202622       -1.4449390157
 H         -0.8229377652       -2.2317360489       -0.3762893746
 H          0.5709528204       -1.0027629358        1.4459580839
 H          1.4395867875       -1.8123081432        0.1292191279
  15
  -18.1797305700000       1.858015426686756E-002 !mtd12
 C         -1.5523462351        1.1261022182       -0.1224036618
 C         -1.7289003759       -0.3853026387       -0.0499622028
 C         -0.5368128967       -1.1064714801        0.5785319233
 C          0.7403026505       -1.0327826185       -0.2729111606
 C          1.4318100091        0.2226483833       -0.1317979498
 N          2.0047621453        1.2041856170       -0.0053456507
 H         -2.4543175607        1.5907983063       -0.5141287420
 H         -1.3569589778        1.5352059845        0.8663676765
 H         -0.7220947724        1.3957666911       -0.7699876291
 H         -2.6155565534       -0.6108665800        0.5476416776
 H         -1.9018082147       -0.7812867888       -1.0542995842
 H         -0.7952732765       -2.1603408927        0.7069269140
 H         -0.3363606290       -0.6887169032        1.5678187977
 H          1.4369108437       -1.8185261822        0.0359080578
 H          0.4999642037       -1.1845846664       -1.3293213638
  15
  -18.1797305700000       1.858015426686756E-002 !mtd6
 C         -1.5480420667        1.1376533817        0.0509556321
 C         -1.7226885272       -0.3695244225        0.1876756852
 C         -0.5617611713       -1.1711038982       -0.4004551844
 C          0.7567918969       -0.9908431632        0.3678620850
 C          1.4357245513        0.2333678078        0.0293673631
 N          1.9983919624        1.1879516603       -0.2532321498
 H         -1.4048668340        1.4120857728       -0.9918322252
 H         -2.4305004692        1.6528495753        0.4234899427
 H         -0.6867852342        1.4877621213        0.6140422436
 H         -1.8424948821       -0.6289980408        1.2430070732
 H         -2.6379912917       -0.6690908522       -0.3287228285
 H         -0.4132240718       -0.8875569385       -1.4449288711
 H         -0.8230316402       -2.2318000286       -0.3760570672
 H          0.5710849528       -1.0029853754        1.4459109556
 H          1.4396785372       -1.8122087223        0.1289416740
  15
  -18.1797305600000       1.857995765365758E-002 !mtd6
 C         -1.5476758260        1.1375021455        0.0522255555
 C         -1.7230977954       -0.3698336305        0.1862038057
 C         -0.5614393183       -1.1709311907       -0.4011324286
 C          0.7562739388       -0.9904011331        0.3685870913
 C          1.4357316767        0.2333725174        0.0295510331
 N          1.9986302999        1.1877492167       -0.2533454179
 H         -0.6875362000        1.4864423538        0.6177446273
 H         -1.4021002267        1.4135249728       -0.9898034297
 H         -2.4307545455        1.6524387574        0.4236416636
 H         -1.8448843801       -0.6309322553        1.2409111956
 H         -2.6375742755       -0.6682602835       -0.3323077262
 H         -0.4119513310       -0.8869173449       -1.4453485551
 H         -0.8224548719       -2.2317081965       -0.3774236577
 H          0.5693604535       -1.0014534186        1.4464377083
 H          1.4392170843       -1.8121585480        0.1312218876
  15
  -18.1797304900000       1.857858141958128E-002 !mtd8
 C         -1.5509884397        1.1260008236       -0.1233631312
 C         -1.7291124570       -0.3851091178       -0.0485110974
 C         -0.5367216946       -1.1067749207        0.5788161915
 C          0.7398765465       -1.0327193382       -0.2733445911
 C          1.4312739505        0.2227895649       -0.1322816835
 N          2.0043048617        1.2042154952       -0.0052218179
 H         -0.7231729743        1.3939731412       -0.7747502812
 H         -2.4540130232        1.5913961521       -0.5118241108
 H         -1.3508905945        1.5359739942        0.8641028332
 H         -2.6148924442       -0.6088869240        0.5510662280
 H         -1.9043006588       -0.7822703045       -1.0519966554
 H         -0.7952952191       -2.1606650876        0.7067660646
 H         -0.3355934016       -0.6896511665        1.5682261665
 H          1.4368094089       -1.8183933646        0.0349389606
 H          0.4989345973       -1.1843610277       -1.3296409174
  15
  -18.1797304800000       1.857838482301500E-002 !mtd7
 C         -1.5528044042        1.1257097800       -0.1232969058
 C         -1.7291242682       -0.3856020667       -0.0489472923
 C         -0.5363766265       -1.1058600467        0.5793154961
 C          0.7398598761       -1.0323658250       -0.2734722996
 C          1.4317706263        0.2227866657       -0.1322970840
 N          2.0055425563        1.2037216055       -0.0052189329
 H         -1.3569797658        1.5361323410        0.8647671061
 H         -0.7230337003        1.3947777804       -0.7716446906
 H         -2.4550388949        1.5897740120       -0.5151043283
 H         -2.6150820057       -0.6106584762        0.5497645332
 H         -1.9028745138       -0.7828612489       -1.0525925578
 H         -0.7945460006       -2.1596468456        0.7089150762
 H         -0.3352293679       -0.6871021063        1.5680446627
 H          1.4365730388       -1.8183073398        0.0345282117
 H          0.4985458234       -1.1838670734       -1.3296656770
