  15
        -18.18091878
 C         -2.6578712005        0.5438933698       -0.1409588161
 C         -1.2634031717        0.2892040677        0.4169518859
 C         -0.5430416064       -0.8135415541       -0.3556704126
 C          0.8669238885       -1.0701828295        0.1925438756
 C          1.7103891902        0.0847625106        0.0195614904
 N          2.3719839916        1.0050774290       -0.1293612600
 H         -2.6013300135        0.8548004283       -1.1817717596
 H         -3.2636310737       -0.3583957927       -0.0850644553
 H         -3.1564225204        1.3275061312        0.4238939562
 H         -0.6751693588        1.2082649026        0.3637845488
 H         -1.3403162988        0.0040236773        1.4694494272
 H         -0.4744250749       -0.5335676639       -1.4095071431
 H         -1.1168804465       -1.7410302075       -0.2911928539
 H          0.8206922086       -1.3072169607        1.2596504776
 H          1.3313675415       -1.9117912902       -0.3296456370
  15
        -18.18075418
 C         -2.9628045705        0.3342066423       -0.1396266854
 C         -1.7523414508       -0.5094512370        0.2398729183
 C         -0.4455287478        0.2063512763       -0.0921501644
 C          0.7714478248       -0.6446962422        0.2919322555
 C          1.9982822374        0.0383160880       -0.0261279580
 N          2.9619819693        0.5957092184       -0.2857632158
 H         -3.8839727520       -0.1897831883        0.1032837548
 H         -2.9532575878        1.2795717339        0.3983340267
 H         -2.9601715751        0.5479286223       -1.2061731888
 H         -1.7844918501       -0.7290003596        1.3099480348
 H         -1.7913825459       -1.4612105851       -0.2957800584
 H         -0.4031437447        1.1580561834        0.4426820439
 H         -0.4093381196        0.4250733867       -1.1619344188
 H          0.7615408091       -0.8576716863        1.3650948845
 H          0.7543533171       -1.5960324976       -0.2482595857
  15
        -18.18015661
 C         -2.1645517206        0.5642111887       -0.5601834755
 C         -1.3307891567        0.2488499819        0.6768192505
 C         -0.4939645878       -1.0227819067        0.5318389767
 C          0.6159660184       -0.8978690083       -0.5213950205
 C          1.5382875415        0.1563995756       -0.1870315527
 N          2.2656737967        0.9941900608        0.0887669481
 H         -1.5339449185        0.8215146283       -1.4078746305
 H         -2.7837819213       -0.2885420570       -0.8326906794
 H         -2.8174842242        1.4110582540       -0.3639561539
 H         -0.6706782571        1.0909235722        0.8966114488
 H         -2.0001891593        0.1208874580        1.5305502218
 H         -1.1423422069       -1.8569916557        0.2535240079
 H         -0.0373720165       -1.2589746991        1.4960110262
 H          1.1778397721       -1.8344084160       -0.5859024149
 H          0.1901290054       -0.6864441739       -1.5054222295
  15
        -18.18005382
 C         -2.5686393501        0.5317010928        0.3335909770
 C         -1.8192946072       -0.7177157594       -0.1154712895
 C         -0.3950939632       -0.4289541523       -0.5889772461
 C          0.5115766950        0.0632289062        0.5469630194
 C          1.8662473133        0.2193584223        0.0856749256
 N          2.9371114764        0.3378589193       -0.2967119040
 H         -2.1236271010        0.9616392574        1.2277342711
 H         -2.5614089276        1.2836580710       -0.4527527395
 H         -3.6032609475        0.2862050671        0.5609991222
 H         -1.7907191151       -1.4403656179        0.7037265137
 H         -2.3651426749       -1.1787744012       -0.9415189916
 H         -0.4183153632        0.3225949214       -1.3814837731
 H          0.0334020578       -1.3418661419       -1.0097937446
 H          0.1669219020        1.0288181310        0.9254110209
 H          0.5078341388       -0.6561631252        1.3714588595
  15
        -18.17973057
 C         -1.5482137254        1.1376390202        0.0509672708
 C         -1.7226911790       -0.3695548678        0.1876760054
 C         -0.5617108952       -1.1710254375       -0.4005159228
 C          0.7567803275       -0.9908160196        0.3679277396
 C          1.4358743813        0.2332847074        0.0293618669
 N          1.9984219081        1.1879528079       -0.2532523255
 H         -2.4306229755        1.6527663987        0.4237141023
 H         -0.6868506385        1.4877905571        0.6138578496
 H         -1.4052961390        1.4121025354       -0.9918451841
 H         -1.8424448125       -0.6290369801        1.2430118602
 H         -2.6379884832       -0.6691877774       -0.3286917733
 H         -0.4131154120       -0.8873202622       -1.4449390157
 H         -0.8229377652       -2.2317360489       -0.3762893746
 H          0.5709528204       -1.0027629358        1.4459580839
 H          1.4395867875       -1.8123081432        0.1292191279
