  8
        -23.49022733
 C          0.6538492467        0.0000104903       -0.3856602099
 C         -0.6538743297        0.0000762525        0.3855696736
 Cl        -1.5882254144        1.4497186082       -0.0332867412
 Cl        -1.5888929880       -1.4492001151       -0.0332565185
 Cl         1.5888212462        1.4489770201        0.0333092498
 Cl         1.5883050229       -1.4495272307        0.0332676441
 H          0.4876061280       -0.0000848724       -1.4654677950
 H         -0.4875839302        0.0001668378        1.4653636149
