! pbe def2-sv(p) def2/J RI DEFGRID1 loosescf d4 GCP(DFT/SV(P)) printgap
%output
    printlevel normal
end
* xyz 0 1
C 1.8032436208 0.8316594011 -1.0480582351
C 1.4414323116 -0.2189823971 0.0198659933
H 2.2135995131 -0.9974233678 0.0185586286
C 0.089750072 -0.9199347161 -0.2400842802
C -1.1686979675 -0.1877268566 0.2471731852
C -1.4289515314 1.129920226 -0.4806305494
C -2.3765491029 -1.1098599102 0.0736305726
O 1.5245831073 0.3123830326 1.3316191096
H 2.6897512201 0.5267299404 -1.5963333031
H 0.9968813717 0.9723277846 -1.759432358
H 2.0220955222 1.7849326227 -0.5722739999
H 0.010790245 -1.1185214803 -1.3098779181
H 0.1184911017 -1.8838793332 0.2734571833
H -1.0547955428 0.0134250612 1.3184000356
H -0.6333983275 1.8498640726 -0.3138728525
H -2.3591631864 1.5688663434 -0.1253464515
H -1.5241482501 0.9579080884 -1.5509645833
H -2.2359772821 -2.0391736237 0.6206226949
H -3.2784582988 -0.6279395033 0.4436223781
H -2.5218447729 -1.3491054805 -0.9776236905
H 0.8958866789 1.0428263703 1.4114512964
*
