  13
        -28.02899229
 C          1.2790904470       -1.4812895865       -0.1728415947
 C          1.7106823091       -0.0535791623       -0.0336340113
 O          2.8308717324        0.3005809432        0.2090025629
 C          0.6021980862        0.9958374697       -0.1967874063
 O         -0.5910256739        0.5135303399       -0.7683236900
 N         -1.5762523773        0.0293534846        0.1065582169
 O         -1.3255850686        0.0667655162        1.2640868746
 O         -2.5371394839       -0.3586287425       -0.4539363970
 H          2.1490470330       -2.1314021434       -0.1651806309
 H          0.6343902725       -1.7430753101        0.6662643380
 H          0.7185115179       -1.6177680332       -1.0957707071
 H          0.9552720548        1.7918509873       -0.8562987186
 H          0.4043869811        1.4258669463        0.7941189184
  13
        -28.02869651
 C          2.5393463689       -1.2586675370       -0.0675582447
 C          1.4777302936       -0.2012353753       -0.0326692222
 O          1.4033718767        0.6731704758        0.7830339520
 C          0.4344338831       -0.3350935926       -1.1522805333
 O         -0.6541021879        0.5325369897       -0.9475065344
 N         -1.4270762355        0.2513604077        0.1905741263
 O         -1.1667701413       -0.7542508348        0.7616647677
 O         -2.2629251969        1.0529104276        0.3979674912
 H          3.3967113252       -0.9433674483        0.5202508551
 H          2.1285285501       -2.1628582723        0.3801585464
 H          2.8380354510       -1.4853708980       -1.0870132797
 H          0.0993499794       -1.3756692491       -1.2323610274
 H          0.8703816169       -0.0154676521       -2.1006290540
  13
        -28.02809679
 C          2.6797704726       -1.1276267251       -0.1311183409
 C          1.4860892825       -0.2224790091       -0.0423186664
 O          1.3634503438        0.6680861613        0.7506275883
 C          0.3934624507       -0.5164433847       -1.0775821826
 O         -0.6722524420        0.3944223280       -0.9691255738
 N         -1.4440804587        0.2782112994        0.2016639713
 O         -1.2344046386       -0.6739530687        0.8738319465
 O         -2.2323819836        1.1427541165        0.3247576160
 H          2.8951825054       -1.5280737489        0.8571966958
 H          2.5294826305       -1.9375360522       -0.8371230354
 H          3.5425615068       -0.5356873290       -0.4322702087
 H          0.0427907522       -1.5486057252       -0.9530328134
 H          0.7851378000       -0.3809777375       -2.0870302207
  13
        -28.02786064
 C          1.8282812261       -1.2857625184       -1.0275641504
 C          1.9136018506       -0.1164543483       -0.1026366749
 O          2.9334577208        0.3819187510        0.2858031168
 C          0.5685200793        0.4547702784        0.3572050697
 O         -0.5043006643       -0.2717979765       -0.2000000433
 N         -1.7931420730        0.1685703957        0.1423675919
 O         -1.8531055569        1.1043832356        0.8640235095
 O         -2.6465544114       -0.4753849654       -0.3525001186
 H          2.8248554655       -1.6217952425       -1.2986785868
 H          1.2778488064       -2.0905163299       -0.5449033202
 H          1.2708247568       -1.0038496591       -1.9182632746
 H          0.5164066726        1.5098373879        0.0596503580
 H          0.5299026304        0.4215284941        1.4534467689
  13
        -28.02412873
 C          2.6047546252       -0.6024132019       -1.2108478637
 C          1.6994927237       -0.1920807339       -0.0927042654
 O          1.7712241504       -0.5937043145        1.0339314756
 C          0.5776892390        0.7825500609       -0.5134678490
 O         -0.6052362581        0.0318253939       -0.7009655507
 N         -1.6337412700        0.1576929948        0.2608564301
 O         -1.4794626115        0.9626886722        1.1106117107
 O         -2.5304260588       -0.5747539720        0.0486843815
 H          3.3371113039       -1.3244042316       -0.8609059966
 H          2.0057259559       -1.0379973920       -2.0085922608
 H          3.1128752651        0.2727196535       -1.6111950940
 H          0.7974367629        1.2796424834       -1.4599639175
 H          0.4175418481        1.5221166481        0.2805642842
