  13
  -28.0289922900000       4.453129608751314E-002 !mtd10
 C          1.2790904470       -1.4812895865       -0.1728415947
 C          1.7106823091       -0.0535791623       -0.0336340113
 O          2.8308717324        0.3005809432        0.2090025629
 C          0.6021980862        0.9958374697       -0.1967874063
 O         -0.5910256739        0.5135303399       -0.7683236900
 N         -1.5762523773        0.0293534846        0.1065582169
 O         -1.3255850686        0.0667655162        1.2640868746
 O         -2.5371394839       -0.3586287425       -0.4539363970
 H          2.1490470330       -2.1314021434       -0.1651806309
 H          0.6343902725       -1.7430753101        0.6662643380
 H          0.7185115179       -1.6177680332       -1.0957707071
 H          0.9552720548        1.7918509873       -0.8562987186
 H          0.4043869811        1.4258669463        0.7941189184
  13
  -28.0289922800000       4.453082486208935E-002 !md2
 C          1.2786006212       -1.4812032568       -0.1717537891
 C          1.7106893952       -0.0535394360       -0.0336963684
 O          2.8311882196        0.3004626683        0.2077009345
 C          0.6022227226        0.9960199822       -0.1960733415
 O         -0.5908897410        0.5140696858       -0.7680379700
 N         -1.5762451145        0.0292675364        0.1064370099
 O         -1.3258879256        0.0663428930        1.2640268157
 O         -2.5368327038       -0.3588085714       -0.4544834569
 H          0.7171723289       -1.6180166449       -1.0940782792
 H          2.1483524836       -2.1315956065       -0.1645507878
 H          0.6345897884       -1.7422951911        0.6680717464
 H          0.9553046808        1.7926576948       -0.8548199416
 H          0.4043028089        1.4251186867        0.7952292622
  13
  -28.0289922800000       4.453082486208935E-002 !mtd1
 C          1.2804518373       -1.4752438510        0.2148260235
 C          1.7111789970       -0.0526516688        0.0285150326
 O          2.8304248470        0.2937349772       -0.2291973876
 C          0.6029515245        1.0012384818        0.1616281681
 O         -0.5876509836        0.5375239250        0.7535555856
 N         -1.5771064158        0.0261275124       -0.1010912243
 O         -1.3319073639        0.0271380422       -1.2603670010
 O         -2.5352251764       -0.3438935315        0.4759987212
 H          0.6329686746       -1.7638724122       -0.6132645228
 H          2.1505541015       -2.1251322040        0.2250580516
 H          0.7230374573       -1.5821944167        1.1435396439
 H          0.4008644189        1.3983195941       -0.8420858308
 H          0.9584270562        1.8186593284        0.7930473324
  13
  -28.0289922800000       4.453082486208935E-002 !mtd8
 C          1.2791495243       -1.4813168043       -0.1726754327
 C          1.7107019064       -0.0535971853       -0.0336977943
 O          2.8308459147        0.3006024121        0.2087630627
 C          0.6021849239        0.9958152879       -0.1966125448
 O         -0.5909828731        0.5135773418       -0.7682580551
 N         -1.5762287656        0.0292455706        0.1065536803
 O         -1.3256949406        0.0667765442        1.2641104256
 O         -2.5371255659       -0.3585462759       -0.4540713212
 H          0.6347865744       -1.7430911584        0.6666950546
 H          0.7182493503       -1.6178977018       -1.0953974861
 H          2.1491367159       -2.1313730365       -0.1652883194
 H          0.9552457085        1.7919657819       -0.8559566189
 H          0.4043342645        1.4256006611        0.7943676543
  13
  -28.0289922400000       4.452894001042565E-002 !mtd12
 C          1.2808918619       -1.4758617000        0.2129296064
 C          1.7108872275       -0.0528304613        0.0284503068
 O          2.8295048569        0.2943260144       -0.2309076274
 C          0.6028649319        1.0006736613        0.1664322857
 O         -0.5880811029        0.5345523590        0.7558144291
 N         -1.5768100805        0.0265584540       -0.1014831447
 O         -1.3306354206        0.0317489936       -1.2605712595
 O         -2.5355942969       -0.3453893260        0.4733059799
 H          2.1512299470       -2.1254675578        0.2206544983
 H          0.7248710511       -1.5846027444        1.1422741625
 H          0.6322823483       -1.7632918387       -0.6146936387
 H          0.4012351177        1.4030173625       -0.8352595337
 H          0.9584805021        1.8146987764        0.8021647753
  13
  -28.0289922300000       4.452846880993361E-002 !gc
 C          1.2786791436       -1.4813349719       -0.1730686144
 C          1.7104166391       -0.0536926842       -0.0337394354
 O          2.8305842500        0.3002337120        0.2092429654
 C          0.6022750303        0.9960682916       -0.1969593436
 O         -0.5912164599        0.5143130117       -0.7683324493
 N         -1.5760642335        0.0293163012        0.1066669166
 O         -2.5371390451       -0.3581919378       -0.4538118264
 O         -1.3247933888        0.0658525072        1.2640732939
 H          2.1487251205       -2.1313512650       -0.1676368297
 H          0.6360057410       -1.7436029099        0.6674559003
 H          0.7159923831       -1.6174686518       -1.0947458843
 H          0.9556181215        1.7917397317       -0.8567286959
 H          0.4048202845        1.4264623639        0.7938498022
  13
  -28.0289922300000       4.452846880993361E-002 !gc
 C          1.3413362106       -1.3619703848        0.4589265335
 C          1.6889252471       -0.0970191131       -0.2642776432
 O          2.7317438309        0.1067090635       -0.8211365089
 C          0.5932511446        0.9778926168       -0.2894320956
 O         -0.4569539223        0.7750131352        0.6264163850
 N         -1.5696138732        0.0434336373        0.1813640329
 O         -2.3968895260       -0.0831251787        1.0105162686
 O         -1.5378111364       -0.3463521137       -0.9371472056
 H          0.5616534185       -1.8867647553       -0.0932668999
 H          2.2171847171       -2.0007370597        0.5252862156
 H          0.9670366059       -1.1358730680        1.4556558398
 H          0.2018981571        1.0285580609       -1.3142242103
 H          1.0335515237        1.9454523599       -0.0380073071
  13
  -28.0289922200000       4.452799761442779E-002 !mtd1
 C          1.3408705006       -1.3613931530        0.4600433438
 C          1.6884997851       -0.0969613267       -0.2640758931
 O          2.7309006175        0.1058248847       -0.8220692723
 C          0.5933274409        0.9784854087       -0.2891260166
 O         -0.4572936137        0.7757954141        0.6263520355
 N         -1.5691029503        0.0433699843        0.1812098576
 O         -2.3965257020       -0.0837708349        1.0101883533
 O         -1.5367917437       -0.3466885201       -0.9372204995
 H          0.9653766763       -1.1347208148        1.4561754722
 H          0.5621167655       -1.8871338104       -0.0926079168
 H          2.2169530337       -1.9996866885        0.5278101723
 H          0.2022915454        1.0299669950       -1.3139921569
 H          1.0340171556        1.9456696149       -0.0369630096
  13
  -28.0289921900000       4.452658405799430E-002 !gc
 C          1.3401474115       -1.3614051969        0.4599846015
 C          1.6879904154       -0.0971358848       -0.2642950531
 O          2.7303415836        0.1053150779       -0.8224971139
 C          0.5935568311        0.9790864218       -0.2883334137
 O         -0.4574922693        0.7763886498        0.6266760968
 N         -1.5686860457        0.0433462877        0.1811809681
 O         -2.3970264457       -0.0830932486        1.0093395934
 O         -1.5350930115       -0.3478832673       -0.9368161027
 H          2.2156964749       -2.0005779253        0.5263075171
 H          0.9663994935       -1.1345675770        1.4567498481
 H          0.5600316645       -1.8862243903       -0.0915879673
 H          0.2029201602        1.0321061253       -1.3132497610
 H          1.0348778177        1.9456349532       -0.0348279852
  13
  -28.0289921700000       4.452564171185704E-002 !mtd11
 C          1.2788412392       -1.4724269889        0.2272543109
 C          1.7109078366       -0.0519860009        0.0288851938
 O          2.8311071606        0.2913700833       -0.2284522409
 C          0.6029275059        1.0036410282        0.1490125410
 O         -0.5877796080        0.5476812835        0.7468732553
 N         -1.5766827882        0.0245325872       -0.1008182771
 O         -1.3308223023        0.0087495470       -1.2599329750
 O         -2.5354442538       -0.3369294492        0.4807100511
 H          0.7222895041       -1.5708362776        1.1575243799
 H          0.6301401947       -1.7674643815       -0.5975873342
 H          2.1483155328       -2.1230096384        0.2424408969
 H          0.4008789904        1.3880156121       -0.8595307618
 H          0.9585153554        1.8287610330        0.7700451802
  13
  -28.0289908600000       4.446396145975713E-002 !gc
 C          1.2790616357       -1.4812047153       -0.1785182703
 C          1.7077185537       -0.0531298380       -0.0342183745
 O          2.8247401760        0.3018782795        0.2214107966
 C          0.6013704660        0.9959847340       -0.2131472391
 O         -0.5943079163        0.5080310441       -0.7747344983
 N         -1.5735326910        0.0291421079        0.1096682320
 O         -2.5373029480       -0.3643132255       -0.4420315807
 O         -1.3158328817        0.0759672184        1.2652622126
 H          0.6289628569       -1.7452360084        0.6557091831
 H          0.7251547767       -1.6172881434       -1.1055193163
 H          2.1499241785       -2.1300229546       -0.1650252571
 H          0.9555068727        1.7784037533       -0.8882141765
 H          0.4070118073        1.4453019893        0.7696954281
  13
  -28.0289905600000       4.444984823966377E-002 !gc
 C          1.2783619605       -1.4811651302       -0.1792289411
 C          1.7070491397       -0.0531335406       -0.0345271700
 O          2.8236764867        0.3016360139        0.2231242929
 C          0.6013046733        0.9963225185       -0.2152877654
 O         -0.5949094132        0.5081952764       -0.7755904820
 N         -1.5728489651        0.0290926981        0.1100551593
 O         -2.5372178086       -0.3647472888       -0.4403480499
 O         -1.3136990387        0.0761560456        1.2653369164
 H          0.7238634860       -1.6170171816       -1.1058950798
 H          2.1492555080       -2.1299641136       -0.1663519746
 H          0.6288699249       -1.7454913426        0.6553887384
 H          0.9557853807        1.7769109339       -0.8922846325
 H          0.4075928344        1.4480856260        0.7665465353
  13
  -28.0286965100000       3.256373854216427E-002 !mtd7
 C          2.5393463689       -1.2586675370       -0.0675582447
 C          1.4777302936       -0.2012353753       -0.0326692222
 O          1.4033718767        0.6731704758        0.7830339520
 C          0.4344338831       -0.3350935926       -1.1522805333
 O         -0.6541021879        0.5325369897       -0.9475065344
 N         -1.4270762355        0.2513604077        0.1905741263
 O         -1.1667701413       -0.7542508348        0.7616647677
 O         -2.2629251969        1.0529104276        0.3979674912
 H          3.3967113252       -0.9433674483        0.5202508551
 H          2.1285285501       -2.1628582723        0.3801585464
 H          2.8380354510       -1.4853708980       -1.0870132797
 H          0.0993499794       -1.3756692491       -1.2323610274
 H          0.8703816169       -0.0154676521       -2.1006290540
  13
  -28.0286965100000       3.256373854216427E-002 !gc
 C          2.7078253162       -0.1212036264        0.8311597754
 C          1.4792048400       -0.1908939759       -0.0244620525
 O          1.1337585712       -1.1482667883       -0.6566245463
 C          0.6466915473        1.1001297849       -0.0175264692
 O         -0.5978533458        0.9130121050       -0.6466525001
 N         -1.4613358536        0.0194550490        0.0072129386
 O         -1.1085780178       -0.3599018125        1.0734365973
 O         -2.4483138237       -0.2015782065       -0.5937679534
 H          3.4022198839       -0.9071488263        0.5481446153
 H          3.1840319108        0.8525276207        0.7604852779
 H          2.4071522244       -0.2833298852        1.8656033848
 H          1.1482736818        1.8638484873       -0.6147755992
 H          0.5187397885        1.4602337841        1.0098199088
  13
  -28.0286964900000       3.256304937391954E-002 !mtd2
 C          2.7070981786       -0.1218135425        0.8325006253
 C          1.4793798328       -0.1908185726       -0.0244256486
 O          1.1346390225       -1.1474835218       -0.6580717097
 C          0.6465951343        1.1000883354       -0.0166594391
 O         -0.5977023164        0.9132585142       -0.6462750255
 N         -1.4614204544        0.0194062016        0.0069775926
 O         -1.1087183463       -0.3607759954        1.0729426023
 O         -2.4484112638       -0.2010687747       -0.5941860696
 H          3.1822620961        0.8527079415        0.7647177010
 H          2.4053204868       -0.2868574820        1.8662204840
 H          3.4026950317       -0.9063335156        0.5483535851
 H          1.1481722069        1.8644548426       -0.6130354268
 H          0.5182727435        1.4591468705        1.0110060990
  13
  -28.0286964900000       3.256304937391954E-002 !md6
 C          2.7064071823       -0.1220259659        0.8334168954
 C          1.4791795280       -0.1906741244       -0.0243367182
 O          1.1347595315       -1.1472609684       -0.6582658499
 C          0.6466322994        1.1003091987       -0.0168385177
 O         -0.5978522667        0.9136916769       -0.6461834047
 N         -1.4612811040        0.0192025796        0.0068216869
 O         -1.1079022710       -0.3617032863        1.0722840914
 O         -2.4485634798       -0.2007190086       -0.5940463545
 H          2.4041545500       -0.2871955884        1.8669266082
 H          3.4020068498       -0.9065492832        0.5494932014
 H          3.1817490066        0.8523299688        0.7661017136
 H          1.1483721247        1.8642667256       -0.6136967805
 H          0.5186113623        1.4600333986        1.0106222889
  13
  -28.0286964800000       3.256270479520548E-002 !gc
 C          2.5402721772       -1.2579554442       -0.0678278403
 C          1.4778561816       -0.2013370734       -0.0327955524
 O          1.4031668061        0.6732334321        0.7827373476
 C          0.4341602990       -0.3363028147       -1.1518832697
 O         -0.6541559259        0.5317835705       -0.9475608321
 N         -1.4271434054        0.2515692475        0.1905652486
 O         -1.1674773891       -0.7539267911        0.7622368579
 O         -2.2626351412        1.0536078384        0.3976815580
 H          2.8366925038       -1.4869231312       -1.0874306281
 H          3.3988074581       -0.9406297072        0.5172026538
 H          2.1313379699       -2.1613987362        0.3831363391
 H          0.0988451055       -1.3769351666       -1.2305455976
 H          0.8697155206       -0.0178670242       -2.1008215327
  13
  -28.0286964700000       3.256236022013773E-002 !gc
 C          2.3177437359       -1.2399377930       -1.0642726921
 C          1.4284906555       -0.3476617299       -0.2521586815
 O          1.4387155122       -0.2688977887        0.9433467251
 C          0.4462797892        0.4795588858       -1.0952452531
 O         -0.5064491900        1.1268542226       -0.2872390246
 N         -1.3805405068        0.2678427288        0.3983964843
 O         -2.0934214651        0.8275264736        1.1485066473
 O         -1.3135579137       -0.8804563081        0.1120146773
 H          3.1760465965       -1.5460132939       -0.4730028991
 H          1.7485497958       -2.1295851161       -1.3313500911
 H          2.6394395885       -0.7505789470       -1.9791422807
 H         -0.0390786217       -0.1589039441       -1.8424431740
 H          0.9822883708        1.2882669037       -1.5954987001
  13
  -28.0286964500000       3.256167108106334E-002 !gc
 C          2.3621962460       -1.5361916043       -0.3067198143
 C          1.4314711600       -0.3658522052       -0.2043882247
 O          1.3164818883        0.4966305992       -1.0280464746
 C          0.5834383832       -0.3604105312        1.0765370765
 O         -0.4240526952        0.6202590326        1.0223464738
 N         -1.4029236307        0.4070738627        0.0385374212
 O         -2.1704406778        1.2935577207       -0.0574906251
 O         -1.3521868608       -0.6316518963       -0.5303605398
 H          3.1356486015       -1.3320931626       -1.0416440587
 H          2.8043145719       -1.7746743517        0.6564048055
 H          1.7853321165       -2.3967868645       -0.6434428710
 H          1.2049486363       -0.0738445718        1.9269409309
 H          0.1564791544       -1.3549181510        1.2500815563
  13
  -28.0286964500000       3.256167108106334E-002 !gc
 C          2.3627126315       -1.5359826291       -0.3073635080
 C          1.4316864648       -0.3659359550       -0.2045099201
 O          1.3169477544        0.4972315317       -1.0274853209
 C          0.5830400568       -0.3616526767        1.0760282302
 O         -0.4239671321        0.6196246624        1.0223714334
 N         -1.4030437682        0.4072683239        0.0388203267
 O         -2.1705951023        1.2938592595       -0.0564392040
 O         -1.3527138215       -0.6310362796       -0.5310104217
 H          2.8033896142       -1.7762074194        0.6560645851
 H          1.7864158573       -2.3960935789       -0.6464965539
 H          3.1372802595       -1.3305732510       -1.0407986451
 H          1.2040778641       -0.0766922817        1.9273264842
 H          0.1553192966       -1.3561709393        1.2478198715
  13
  -28.0286964100000       3.256029284642361E-002 !mtd6
 C          2.5367421448       -1.2604748404       -0.0666906110
 C          1.4771394955       -0.2010693224       -0.0322835924
 O          1.4035656084        0.6731037125        0.7837563767
 C          0.4351548970       -0.3319517186       -1.1535631672
 O         -0.6539694651        0.5345648453       -0.9473622552
 N         -1.4266363015        0.2507734894        0.1903811012
 O         -1.1652852631       -0.7555710151        0.7596814534
 O         -2.2628689958        1.0514603925        0.3994336732
 H          2.1229492297       -2.1649413672        0.3777503030
 H          2.8376058193       -1.4853502707       -1.0859167947
 H          3.3932476213       -0.9481561714        0.5239585200
 H          0.1006755992       -1.3723828704       -1.2376938141
 H          0.8722521112       -0.0087851859       -2.1002088182
  13
  -28.0286964100000       3.256029284642361E-002 !gc
 C          2.3620125634       -1.5363194641       -0.3066768518
 C          1.4313703471       -0.3659650261       -0.2043946638
 O          1.3166128229        0.4966599807       -1.0279260668
 C          0.5834303723       -0.3602121952        1.0766194248
 O         -0.4239872866        0.6205787549        1.0221015590
 N         -1.4027282451        0.4071238025        0.0384769650
 O         -2.1704188988        1.2934661968       -0.0578353360
 O         -1.3522955003       -0.6319232939       -0.5299584180
 H          1.7849392323       -2.3969985464       -0.6428245409
 H          3.1351753889       -1.3325155040       -1.0419847849
 H          2.8045148801       -1.7745018139        0.6563603043
 H          1.2048521863       -0.0736442229        1.9270737692
 H          0.1562739652       -1.3546270679        1.2502042777
  13
  -28.0286963100000       3.255684751540781E-002 !gc
 C          2.3204925434       -1.2377019244       -1.0644132974
 C          1.4287862686       -0.3479238299       -0.2522122422
 O          1.4376313449       -0.2705547353        0.9433794092
 C          0.4460235320        0.4786787044       -1.0952471772
 O         -0.5062629141        1.1264204459       -0.2870363165
 N         -1.3809866791        0.2680284683        0.3983585517
 O         -2.0932569856        0.8280884843        1.1487835132
 O         -1.3150751001       -0.8802811899        0.1117571381
 H          1.7522820736       -2.1265067164       -1.3362791204
 H          2.6450157215       -0.7453020264       -1.9766498162
 H          3.1770719091       -1.5455321893       -0.4715111203
 H         -0.0398281052       -0.1606039294       -1.8414368424
 H          0.9814043929        1.2870040873       -1.5967397258
  13
  -28.0286947800000       3.250417938590309E-002 !gc
 C          2.3318043858       -1.2276566152       -1.0645255731
 C          1.4292899212       -0.3488291526       -0.2523298258
 O          1.4307617818       -0.2784640156        0.9437220291
 C          0.4453299244        0.4757303078       -1.0958256849
 O         -0.5055452348        1.1249543751       -0.2871987331
 N         -1.3819621367        0.2684545388        0.3985668081
 O         -2.0909796614        0.8299500014        1.1510496743
 O         -1.3211447515       -0.8795944632        0.1099171875
 H          2.6604372696       -0.7267340060       -1.9707770073
 H          3.1857226741       -1.5347423150       -0.4674131448
 H          1.7711487836       -2.1178972676       -1.3473357801
 H         -0.0417408535       -0.1658054102       -1.8393616280
 H          0.9792503906        1.2829063390       -1.6006162040
  13
  -28.0280967900000       1.726322893418056E-002 !gc
 C          2.6797704726       -1.1276267251       -0.1311183409
 C          1.4860892825       -0.2224790091       -0.0423186664
 O          1.3634503438        0.6680861613        0.7506275883
 C          0.3934624507       -0.5164433847       -1.0775821826
 O         -0.6722524420        0.3944223280       -0.9691255738
 N         -1.4440804587        0.2782112994        0.2016639713
 O         -1.2344046386       -0.6739530687        0.8738319465
 O         -2.2323819836        1.1427541165        0.3247576160
 H          2.8951825054       -1.5280737489        0.8571966958
 H          2.5294826305       -1.9375360522       -0.8371230354
 H          3.5425615068       -0.5356873290       -0.4322702087
 H          0.0427907522       -1.5486057252       -0.9530328134
 H          0.7851378000       -0.3809777375       -2.0870302207
  13
  -28.0280964500000       1.725701897904720E-002 !md3
 C          2.8579031157        0.0012314978        0.5429938118
 C          1.4881516021       -0.2073071526       -0.0334793969
 O          1.0551424200       -1.2644087581       -0.3967987958
 C          0.6468354954        1.0705716974       -0.1387907840
 O         -0.6057349314        0.8117854535       -0.7228947007
 N         -1.4824167710        0.0352475898        0.0574392464
 O         -1.1504974635       -0.1613413074        1.1770975036
 O         -2.4596136930       -0.2790073820       -0.5173214852
 H          3.0138163169       -0.7103556220        1.3510912444
 H          3.5963180362       -0.2201495452       -0.2258532703
 H          3.0010347022        1.0137552557        0.9054832572
 H          1.1315547392        1.7865360420       -0.8045752760
 H          0.5317328992        1.5133389194        0.8584932688
  13
  -28.0278606400000       1.344605873812560E-002 !mtd4
 C          1.8282812261       -1.2857625184       -1.0275641504
 C          1.9136018506       -0.1164543483       -0.1026366749
 O          2.9334577208        0.3819187510        0.2858031168
 C          0.5685200793        0.4547702784        0.3572050697
 O         -0.5043006643       -0.2717979765       -0.2000000433
 N         -1.7931420730        0.1685703957        0.1423675919
 O         -1.8531055569        1.1043832356        0.8640235095
 O         -2.6465544114       -0.4753849654       -0.3525001186
 H          2.8248554655       -1.6217952425       -1.2986785868
 H          1.2778488064       -2.0905163299       -0.5449033202
 H          1.2708247568       -1.0038496591       -1.9182632746
 H          0.5164066726        1.5098373879        0.0596503580
 H          0.5299026304        0.4215284941        1.4534467689
  13
  -28.0278605300000       1.344449368873707E-002 !mtd4
 C          1.8280277858       -1.3009647421       -1.0079537939
 C          1.9136373305       -0.1164156591       -0.1026136927
 O          2.9335359253        0.3887092075        0.2768922924
 C          0.5685431255        0.4607040803        0.3498943426
 O         -0.5044960004       -0.2544818824       -0.2215614813
 N         -1.7929264452        0.1680208078        0.1428754276
 O         -1.8530350721        1.0814449554        0.8927240485
 O         -2.6464967667       -0.4658851112       -0.3646570990
 H          1.2795224625       -2.0984441340       -0.5113338485
 H          1.2685838947       -1.0342077295       -1.9019637503
 H          2.8244147627       -1.6404072816       -1.2751152964
 H          0.5254551872        1.5185274324        0.0613401193
 H          0.5210136465        0.4180175793        1.4455247567
  13
  -28.0278604100000       1.344278656982292E-002 !mtd1
 C          1.8284699589       -1.2892689769       -1.0231155329
 C          1.9137332953       -0.1166788342       -0.1023474274
 O          2.9335868002        0.3799214864        0.2885803597
 C          0.5684349127        0.4613114963        0.3485068727
 O         -0.5044807170       -0.2632787114       -0.2111215159
 N         -1.7932041961        0.1677336937        0.1434718725
 O         -1.8530325653        1.0956047533        0.8753479757
 O         -2.6467343827       -0.4747246292       -0.3531530649
 H          1.2741872701       -1.0095806298       -1.9164647355
 H          2.8250969946       -1.6285311186       -1.2898076011
 H          1.2749960243       -2.0910403206       -0.5389343515
 H          0.5217864728        1.5154527227        0.0467128054
 H          0.5243416425        0.4323791547        1.4446510495
  13
  -28.0241287300000       2.591360985168686E-004 !mtd8
 C          2.6047546252       -0.6024132019       -1.2108478637
 C          1.6994927237       -0.1920807339       -0.0927042654
 O          1.7712241504       -0.5937043145        1.0339314756
 C          0.5776892390        0.7825500609       -0.5134678490
 O         -0.6052362581        0.0318253939       -0.7009655507
 N         -1.6337412700        0.1576929948        0.2608564301
 O         -1.4794626115        0.9626886722        1.1106117107
 O         -2.5304260588       -0.5747539720        0.0486843815
 H          3.3371113039       -1.3244042316       -0.8609059966
 H          2.0057259559       -1.0379973920       -2.0085922608
 H          3.1128752651        0.2727196535       -1.6111950940
 H          0.7974367629        1.2796424834       -1.4599639175
 H          0.4175418481        1.5221166481        0.2805642842
