! r2scan-3c def2/J RI DEFGRID2 scfconv6 printgap
%output
    printlevel normal
end
* xyz 0 1
C -1.5577642512 -0.8441954726 0.1289911385
O -1.2516953391 0.444745753 -0.3707459199
C -0.0709777506 1.0107562233 0.1622478348
C 1.221721753 0.3530609725 -0.3482249096
O 1.5702635361 -0.8372268725 0.3250237848
H -2.4774002825 -1.1453512381 -0.3662183941
H -1.7157618731 -0.8080397394 1.212663849
H -0.763238534 -1.5595811748 -0.0963807808
H -0.0928607444 2.0515154772 -0.1654988602
H -0.1025673181 0.9743198759 1.2608299961
H 2.0387375239 1.0806693564 -0.2808356653
H 1.0851446057 0.0745586349 -1.3957758497
H 1.8212986983 -0.6299688426 1.2360304065
*
