  21
        -39.63185922
 C         -3.2105889350        1.1730738308        0.2141375127
 C         -1.8678013053        0.8209490237       -0.3493026266
 O         -1.6600211639        0.2627962752       -1.3900238649
 O         -0.8862279659        1.2449251203        0.4806720499
 C          0.4114999791        0.8378621884        0.2552410375
 C          1.3937996737        1.8143666139        0.1725745106
 C          2.7131510815        1.4542057101       -0.0315130148
 C          3.0570119440        0.1190834663       -0.1736756725
 C          2.0822861124       -0.8561261282       -0.0934908753
 C          0.7511301336       -0.5139898321        0.1326962803
 C         -0.2756779509       -1.5737989439        0.2809925164
 O         -1.2978674804       -1.4708226238        0.9136273675
 O          0.0638747245       -2.7073943546       -0.3413971657
 H         -3.4793212391        0.3843859555        0.9155420341
 H         -3.9487698990        1.2120039689       -0.5807896368
 H         -3.1622064210        2.1147673901        0.7521801612
 H          1.1058707027        2.8495100094        0.2701604629
 H          3.4723324700        2.2194452290       -0.0894515699
 H          4.0851680532       -0.1602886658       -0.3450978840
 H          2.3386110624       -1.8989504527       -0.1944837282
 H         -0.6415981026       -3.3646039711       -0.2346147934
  21
        -39.62933884
 C         -3.2011557905        1.3043276581        0.1423729789
 C         -1.8675333683        0.8340584172       -0.3653703452
 O         -1.6725002432        0.2374063546       -1.3862579102
 O         -0.8918590772        1.2071323909        0.4904238388
 C          0.4086110041        0.7987455022        0.2595566887
 C          1.3783761978        1.7901636680        0.1912362379
 C          2.7022112967        1.4589079752       -0.0292282530
 C          3.0665198801        0.1332589994       -0.2071542357
 C          2.1054358386       -0.8545703668       -0.1397263820
 C          0.7693619930       -0.5428883894        0.1110276561
 C         -0.1754056835       -1.6827942192        0.2115102190
 O          0.0301854718       -2.7676092395       -0.2664961608
 O         -1.2707391485       -1.4277192907        0.9459597382
 H         -3.1554486672        2.3667618679        0.3662122289
 H         -3.4317837865        0.7728002605        1.0627285648
 H         -3.9660233291        1.1072656500       -0.6019592362
 H          1.0739320801        2.8184457922        0.3108980766
 H          3.4469382728        2.2389425840       -0.0753756957
 H          4.0963533138       -0.1264402508       -0.3973252316
 H          2.3621923250       -1.8945071248       -0.2728001339
 H         -1.8328295649       -2.2184371058        0.9660764676
  21
        -39.62910767
 C         -3.3141175435        1.2121121164       -0.4227071787
 C         -1.8912512422        1.4211225161        0.0065257660
 O         -1.4991761210        2.2326884176        0.7970948058
 O         -1.0960050129        0.5314268030       -0.6241512628
 C          0.2487414635        0.4672803511       -0.3357202028
 C          1.0636842637        1.5843210857       -0.4462814792
 C          2.4227407105        1.4716462548       -0.2125182575
 C          2.9770166090        0.2457287973        0.1192000949
 C          2.1691980568       -0.8691265035        0.2303635037
 C          0.7958793378       -0.7744615548        0.0151323320
 C         -0.0789133332       -1.9565258002        0.1957742080
 O         -1.2773683779       -1.9381090268        0.3143197458
 O          0.6154195350       -3.1067568850        0.2407494830
 H         -3.9605955119        1.9225149539        0.0824660265
 H         -3.6009701690        0.1933765725       -0.1716935104
 H         -3.3927274426        1.3291000609       -1.5006611371
 H          0.6264110246        2.5347603048       -0.7086469348
 H          3.0501046172        2.3462766477       -0.2938902935
 H          4.0383421535        0.1610192510        0.2954530287
 H          2.5879412725       -1.8266096932        0.4967936916
 H          0.0046667118       -3.8480039443        0.3757913568
  21
        -39.62904511
 C         -3.2010016086        1.3445136540        0.1218224266
 C         -1.8701294771        0.8350573495       -0.3571480240
 O         -1.6790989769        0.2253846791       -1.3716695799
 O         -0.8945079814        1.1976959913        0.5011420656
 C          0.4071082156        0.7932770178        0.2652322325
 C          1.3729287999        1.7885229023        0.1968532687
 C          2.6971451423        1.4625921555       -0.0292405340
 C          3.0652663129        0.1388017337       -0.2130181544
 C          2.1077345403       -0.8525830965       -0.1463025269
 C          0.7715331194       -0.5462684448        0.1098664401
 C         -0.1703974827       -1.6890007902        0.2092874987
 O          0.0343149702       -2.7702054853       -0.2773285774
 O         -1.2590988870       -1.4399471693        0.9542093277
 H         -3.9149426268        0.5249852534        0.1255213208
 H         -3.5603236589        2.0990882880       -0.5748114562
 H         -3.1082854569        1.7700421126        1.1154091341
 H          1.0651068712        2.8153046394        0.3209592567
 H          3.4390911619        2.2452906335       -0.0749357253
 H          4.0954490245       -0.1167198062       -0.4069777334
 H          2.3675183586       -1.8911064636       -0.2843595647
 H         -1.8195277906       -2.2315798721        0.9779938830
  21
        -39.62851763
 C         -3.3201967702        1.2565512931       -0.4349411826
 C         -1.8937869802        1.4356921724        0.0012207793
 O         -1.4944330877        2.2626172112        0.7731701900
 O         -1.1094590255        0.5163097555       -0.5963671868
 C          0.2391767160        0.4561742681       -0.3234367325
 C          1.0487878530        1.5763134332       -0.4451614844
 C          2.4107789380        1.4704649527       -0.2262225269
 C          2.9742944801        0.2479538036        0.1020423594
 C          2.1726881500       -0.8703196262        0.2218351750
 C          0.7966454181       -0.7832589434        0.0201163485
 C         -0.0671003825       -1.9731220338        0.2034694048
 O         -1.2671849011       -1.9690289796        0.3002665051
 O          0.6405595739       -3.1146238040        0.2753885247
 H         -3.9366344820        1.0934853833        0.4457576844
 H         -3.4016831907        0.4087808573       -1.1067402627
 H         -3.6641492062        2.1653544454       -0.9238811170
 H          0.6055673519        2.5246130411       -0.7048412698
 H          3.0330714290        2.3478373396       -0.3165097887
 H          4.0376853016        0.1684953562        0.2678806753
 H          2.5987726074       -1.8258844163        0.4832883506
 H          0.0357514829       -3.8606982223        0.4102090521
  21
        -39.62850668
 C         -3.3150288004        1.3086422569       -0.1282507561
 C         -1.8808859736        1.3157807031       -0.5784989948
 O         -1.4625693847        1.8130573287       -1.5858095524
 O         -1.1215615414        0.6566858963        0.3195720893
 C          0.2383681409        0.5179770080        0.1298598491
 C          1.0365215796        1.6190065165       -0.1485340039
 C          2.4070384326        1.4722198260       -0.2669367713
 C          2.9963865604        0.2303410185       -0.0911851593
 C          2.2070027339       -0.8652385449        0.1933037617
 C          0.8216688491       -0.7437106313        0.2954333902
 C          0.0560311651       -1.9826950518        0.5716343612
 O          0.5635407037       -3.0095024926        0.9497191483
 O         -1.2596268565       -1.8907711739        0.3406211051
 H         -3.6448411884        0.2791774247       -0.0137203552
 H         -3.9309733528        1.8215727596       -0.8599887219
 H         -3.3946834945        1.7992846001        0.8387484894
 H          0.5771452173        2.5865805204       -0.2753692060
 H          3.0151417773        2.3354761519       -0.4907329252
 H          4.0662392602        0.1192005200       -0.1763315788
 H          2.6373448102       -1.8448581365        0.3361234479
 H         -1.6807309505       -2.7432678748        0.5348283568
  21
        -39.62831041
 C         -3.2896777006        1.1864487316       -0.7338350454
 C         -1.8979543567        1.3970509010       -0.2044436841
 O         -1.5600724511        2.2771527822        0.5367792811
 O         -1.0762541100        0.4360024463       -0.6693597529
 C          0.2590169011        0.4163353774       -0.3177632091
 C          1.0503582921        1.5470279620       -0.4659693900
 C          2.4021885530        1.4926880785       -0.1770604053
 C          2.9809766209        0.3063742003        0.2449117759
 C          2.1988257327       -0.8217524563        0.3864947133
 C          0.8303934121       -0.7834940501        0.1216627994
 C          0.0680429155       -2.0373355350        0.3342711912
 O          0.5869714564       -3.1169009698        0.4761944345
 O         -1.2598503777       -1.8802952099        0.3868219724
 H         -3.6535385668        2.1139657586       -1.1690731547
 H         -3.9418460793        0.9270603864        0.0972192111
 H         -3.2978662829        0.3892380462       -1.4695375552
 H          0.5997786433        2.4667502040       -0.8042134201
 H          3.0044712834        2.3812801343       -0.2898700279
 H          4.0369556534        0.2636292357        0.4623156852
 H          2.6214342957       -1.7599659272        0.7126828289
 H         -1.6824816335       -2.7404561925        0.5388248715
  21
        -39.62741228
 C         -3.3658685970        1.0119105985       -0.4528471011
 C         -1.9304250152        1.4647295351       -0.4804137757
 O         -1.5673744198        2.5888576981       -0.6929595904
 O         -1.1376937676        0.4117208736       -0.2164976177
 C          0.2343099473        0.4196988897       -0.1334797104
 C          1.0310827961        1.5258205690       -0.4041539960
 C          2.4070542607        1.4422129075       -0.2781055238
 C          3.0106145586        0.2635739302        0.1267610904
 C          2.2257658469       -0.8389422210        0.3965556468
 C          0.8396530468       -0.7853707966        0.2634778346
 C          0.1018728189       -2.0344708900        0.5687648959
 O          0.5953274895       -2.9688174111        1.1525703741
 O         -1.1605499301       -2.0723682645        0.1274885399
 H         -3.6656667899        0.8608449562        0.5822649420
 H         -3.4634871291        0.0651189677       -0.9759217461
 H         -3.9978546236        1.7709472955       -0.9030854844
 H          0.5744184824        2.4521194488       -0.7100485897
 H          3.0071433208        2.3125122099       -0.4967830035
 H          4.0829485863        0.2055572395        0.2302554696
 H          2.6626386992       -1.7731906119        0.7152977746
 H         -1.5576390458       -2.9259779243        0.3636666201
  21
        -39.62331321
 C         -3.2038753467        1.1245131044       -0.1955533945
 C         -1.8523359051        0.7508529154        0.3241799612
 O         -1.6247960210        0.0928796254        1.3036035697
 O         -0.8801337326        1.2616662888       -0.4633415175
 C          0.4229188771        0.8603928126       -0.2492619705
 C          1.4092892649        1.8320201830       -0.1680052386
 C          2.7258064087        1.4602616478        0.0374207502
 C          3.0590791509        0.1237836854        0.1853555753
 C          2.0747842417       -0.8451791350        0.1138500798
 C          0.7489810539       -0.4907275076       -0.1139609543
 C         -0.2995017621       -1.5459097533       -0.2975332945
 O         -1.0749683301       -1.5400994414       -1.2132196572
 O         -0.2849377350       -2.5382253757        0.6003231422
 H         -3.4717236078        0.3832420000       -0.9481680458
 H         -3.1757949919        2.1023824714       -0.6663876188
 H         -3.9335798174        1.0938349582        0.6075430372
 H          1.1300963923        2.8686920756       -0.2712738503
 H          3.4922977979        2.2181089274        0.0899110473
 H          4.0853363738       -0.1643503599        0.3531226944
 H          2.3376604038       -1.8901625546        0.2036071055
 H          0.2871369482       -2.3427102539        1.3543247155
  21
        -39.62304615
 C         -3.3081903700        1.1817438083       -0.7364169087
 C         -1.9067523665        1.4373500159       -0.2617461214
 O         -1.5349365220        2.3656803278        0.3909614169
 O         -1.0998826466        0.4182882176       -0.6671713640
 C          0.2556051038        0.3965375609       -0.3246722991
 C          1.0425958252        1.5224892928       -0.5119257708
 C          2.3887126110        1.4877051542       -0.1938734372
 C          2.9552168016        0.3294704232        0.3116988280
 C          2.1712854885       -0.7924372305        0.4907009740
 C          0.8131519090       -0.7870970877        0.1749626669
 C          0.0722275570       -2.0677851697        0.4171316434
 O          0.5557176069       -2.9653829770        1.0524765022
 O         -1.1488434422       -2.1879042668       -0.1167025443
 H         -3.7375285526        0.3671855479       -0.1551241143
 H         -3.3041918356        0.8899561731       -1.7835186112
 H         -3.9067165276        2.0760150305       -0.5937093086
 H          0.5965673432        2.4238904408       -0.9008040403
 H          2.9908631553        2.3706592999       -0.3428355017
 H          4.0037071298        0.3022094505        0.5643395342
 H          2.5845585274       -1.7089786010        0.8837389001
 H         -1.4203039850       -1.3809545746       -0.5850423021
  21
        -39.62256959
 C         -3.2079950401        1.2349987165        0.0557307253
 C         -1.8517390183        0.7490463488       -0.3549850940
 O         -1.6097168689        0.0464107350       -1.2996553282
 O         -0.8977168854        1.2475957822        0.4583596780
 C          0.4118420083        0.8505571238        0.2673435713
 C          1.3926107098        1.8293869623        0.2050553114
 C          2.7142863761        1.4677529821        0.0156910750
 C          3.0580460644        0.1344345313       -0.1366109246
 C          2.0792952714       -0.8412749408       -0.0833668760
 C          0.7483257540       -0.4970611345        0.1296381905
 C         -0.2912553266       -1.5642068566        0.3018516730
 O         -1.0514478663       -1.5849534884        1.2290239783
 O         -0.2778506547       -2.5377811378       -0.6168738592
 H         -3.4598318440        2.1165036001       -0.5318223800
 H         -3.2083309141        1.4933191720        1.1096898353
 H         -3.9412491600        0.4610063539       -0.1515808614
 H          1.1048359565        2.8635542121        0.3103491523
 H          3.4763178415        2.2309779822       -0.0215324562
 H          4.0882348592       -0.1459313508       -0.2931429493
 H          2.3489281917       -1.8840654707       -0.1771963051
 H          0.2745211960       -2.3160890336       -1.3781945720
  21
        -39.62241101
 C         -3.2215357949        1.4688217959       -0.1131075422
 C         -1.8761425511        0.9390930776       -0.5012692060
 O         -1.6159061368        0.3950425462       -1.5486205131
 O         -0.9786694231        1.1173342330        0.4719244434
 C          0.3539655316        0.7484370715        0.2498878717
 C          1.2719898766        1.7784005373        0.1002823407
 C          2.6134978788        1.4916261680       -0.0676787062
 C          3.0429453694        0.1747554385       -0.0773192996
 C          2.1290778472       -0.8488341804        0.0841962590
 C          0.7709141991       -0.5799673920        0.2346546024
 C         -0.1392197928       -1.7634719707        0.4477179865
 O         -0.0207258593       -2.4784712842        1.4028916356
 O         -1.0362756416       -2.0079483410       -0.5058796457
 H         -3.7882674271        0.6541413368        0.3365820211
 H         -3.7511539415        1.8069207888       -0.9991517954
 H         -3.1229981639        2.2688734462        0.6139733107
 H          0.9176924179        2.7974784773        0.1220117155
 H          3.3211506038        2.2974486423       -0.1867506938
 H          4.0898104733       -0.0541228540       -0.2025779927
 H          2.4529685165       -1.8782905931        0.0964886007
 H         -1.0888117228       -1.3054097592       -1.1869301774
