  21
        -39.63185922
 C         -3.2105889350        1.1730738308        0.2141375127
 C         -1.8678013053        0.8209490237       -0.3493026266
 O         -1.6600211639        0.2627962752       -1.3900238649
 O         -0.8862279659        1.2449251203        0.4806720499
 C          0.4114999791        0.8378621884        0.2552410375
 C          1.3937996737        1.8143666139        0.1725745106
 C          2.7131510815        1.4542057101       -0.0315130148
 C          3.0570119440        0.1190834663       -0.1736756725
 C          2.0822861124       -0.8561261282       -0.0934908753
 C          0.7511301336       -0.5139898321        0.1326962803
 C         -0.2756779509       -1.5737989439        0.2809925164
 O         -1.2978674804       -1.4708226238        0.9136273675
 O          0.0638747245       -2.7073943546       -0.3413971657
 H         -3.4793212391        0.3843859555        0.9155420341
 H         -3.9487698990        1.2120039689       -0.5807896368
 H         -3.1622064210        2.1147673901        0.7521801612
 H          1.1058707027        2.8495100094        0.2701604629
 H          3.4723324700        2.2194452290       -0.0894515699
 H          4.0851680532       -0.1602886658       -0.3450978840
 H          2.3386110624       -1.8989504527       -0.1944837282
 H         -0.6415981026       -3.3646039711       -0.2346147934
