  9
        -13.48285410
 C         -2.2711744151        0.3285157475       -0.2637044930
 C         -1.2294910595       -0.0370436994        0.4609303954
 C         -0.0769640253       -0.8055929026       -0.0793421173
 Cl         1.4019026761        0.2189735501       -0.0332642616
 H         -3.0869515418        0.8890563400        0.1582732764
 H         -2.3533864385        0.0740590150       -1.3076486234
 H         -1.1558048366        0.2354808840        1.5046486323
 H          0.1470474640       -1.6821466766        0.5291724317
 H         -0.2288961658       -1.0921650963       -1.1191756283
