! r2scan-3c def2/J RI DEFGRID2 scfconv6 printgap
%output
    printlevel normal
end
* xyz 0 1
C 2.4114223732 0.6200548158 -0.6285760686
C 1.0762793851 -0.081106144 -0.3657873104
H 0.7200995989 -0.5222853887 -1.3094230745
C 0.0447459182 0.9302836236 0.148093594
C -1.4225030413 0.4732800453 0.1782672915
C -1.9144234694 0.0058453836 -1.1909277814
C -1.66942597 -0.6037034701 1.2313443292
O 1.2311605757 -1.1105402405 0.5990524756
H 2.2866783361 1.3961340719 -1.3777488078
H 2.7787560689 1.070972435 0.2904234315
H 3.1517181639 -0.0910706851 -0.9893189925
H 0.3408780654 1.2142438223 1.1601006421
H 0.1116650489 1.8158451578 -0.4865827683
H -2.0083342072 1.3577526045 0.4590206513
H -2.994928392 -0.1159053176 -1.1753625582
H -1.4737376088 -0.9525454161 -1.4533763498
H -1.6607440918 0.7315449834 -1.9602729404
H -1.392114468 -0.2413376683 2.2183655308
H -2.7207194533 -0.8825441134 1.2467983865
H -1.0743499527 -1.4869149909 1.0186207193
H 1.9560080663 -1.6892310188 0.3282517303
*
