  16
        -20.17173414
 C         -2.7665746012       -0.6472203363       -0.3047475590
 C         -1.8458459127        0.4645675068       -0.7594958627
 S         -0.5615392346        0.8437486610        0.4972520523
 S          0.5611557596       -0.8422273600        0.4985697937
 C          1.8450247957       -0.4654085737       -0.7591597960
 C          2.7681805706        0.6448414282       -0.3054049843
 H         -3.5141164231       -0.8494433811       -1.0692765515
 H         -2.1978688607       -1.5578228639       -0.1232785951
 H         -3.2723701330       -0.3668219208        0.6162521718
 H         -2.3792573933        1.4052446383       -0.8873872483
 H         -1.3353535244        0.2118479665       -1.6887710968
 H          2.3767335303       -1.4069865574       -0.8876492987
 H          1.3341001854       -0.2117637643       -1.6879606373
 H          3.5156638373        0.8453636161       -1.0704268800
 H          2.2013173818        1.5565516088       -0.1239596897
 H          3.2739962709        0.3638120143        0.6153509041
