  16
        -20.17173414
 C         -2.7665746012       -0.6472203363       -0.3047475590
 C         -1.8458459127        0.4645675068       -0.7594958627
 S         -0.5615392346        0.8437486610        0.4972520523
 S          0.5611557596       -0.8422273600        0.4985697937
 C          1.8450247957       -0.4654085737       -0.7591597960
 C          2.7681805706        0.6448414282       -0.3054049843
 H         -3.5141164231       -0.8494433811       -1.0692765515
 H         -2.1978688607       -1.5578228639       -0.1232785951
 H         -3.2723701330       -0.3668219208        0.6162521718
 H         -2.3792573933        1.4052446383       -0.8873872483
 H         -1.3353535244        0.2118479665       -1.6887710968
 H          2.3767335303       -1.4069865574       -0.8876492987
 H          1.3341001854       -0.2117637643       -1.6879606373
 H          3.5156638373        0.8453636161       -1.0704268800
 H          2.2013173818        1.5565516088       -0.1239596897
 H          3.2739962709        0.3638120143        0.6153509041
  16
        -20.17109810
 C         -2.0992957045       -1.3118888095        0.4862928276
 C         -2.1773608262        0.1511853007        0.1054332443
 S         -0.5798004540        1.0330124575        0.3107995325
 S          0.6295356282        0.1227222555       -1.0393632632
 C          1.6166222611       -1.0214386394        0.0058225479
 C          2.5430446764       -0.2671286098        0.9354303730
 H         -1.7377760645       -1.4232447339        1.5067621297
 H         -3.0865318236       -1.7644663399        0.4160389923
 H         -1.4319077024       -1.8452523395       -0.1884886930
 H         -2.8579446049        0.6988410888        0.7558820970
 H         -2.4853944693        0.2800230385       -0.9313332774
 H          0.9249876968       -1.6568606173        0.5568382408
 H          2.1698094871       -1.6251874613       -0.7123173885
 H          3.2288651427        0.3549668652        0.3650076471
 H          1.9679380809        0.3737925019        1.6017393361
 H          3.1200906980       -0.9674347286        1.5362530227
  16
        -20.16952441
 C         -1.7840558901        0.1747814082       -1.5982017734
 C         -2.0906367964        0.0379914676       -0.1230943402
 S         -0.7132548500       -0.6755689164        0.8579428192
 S          0.7180833070        0.7735066925        0.7683014680
 C          2.0906444668       -0.0515887942       -0.1284764914
 C          1.7739424770       -0.3673258490       -1.5736836508
 H         -1.5375550076       -0.7917501037       -2.0323850041
 H         -2.6524293422        0.5765283789       -2.1167784419
 H         -0.9492905507        0.8557246028       -1.7495828057
 H         -2.9109487656       -0.6568084512        0.0534566754
 H         -2.3317219031        1.0008053224        0.3258087957
 H          2.9102473401        0.6610362298       -0.0436307462
 H          2.3373861028       -0.9522693085        0.4323863708
 H          2.6393140182       -0.8283156739       -2.0459641536
 H          0.9394069360       -1.0625241661       -1.6347366996
 H          1.5224328673        0.5388606648       -2.1204707655
  16
        -20.16951800
 C         -1.8050327373       -0.0952003605       -1.5987370953
 C         -2.0861596127        0.1054933562       -0.1257599671
 S         -0.6606294794        0.7753293105        0.8169076216
 S          0.6633071088       -0.7746198471        0.8214226768
 C          2.0884099215       -0.1131548906       -0.1277039676
 C          1.7972643533        0.1012204311       -1.5967295623
 H         -1.0153587594       -0.8303490364       -1.7373640584
 H         -2.7021955677       -0.4579965040       -2.0966457434
 H         -1.5050174104        0.8410943513       -2.0644928803
 H         -2.3732782326       -0.8274886688        0.3575932803
 H         -2.8657913994        0.8491778857        0.0354922581
 H          2.3896809746        0.8132428470        0.3597456150
 H          2.8609846910       -0.8664321998        0.0223018169
 H          1.4848927077       -0.8286138836       -2.0672191840
 H          1.0131648414        0.8445898734       -1.7228797262
 H          2.6935043266        0.4597693088       -2.0992945702
  16
        -20.16950653
 C         -1.7974261646        0.1947126782       -1.6079413643
 C         -2.0867891729        0.0889867708       -0.1266453596
 S         -0.7320909269       -0.6852965624        0.8399752688
 S          0.7356163048        0.7284822224        0.8036493024
 C          2.0884595410       -0.0910078003       -0.1275744918
 C          1.7884135740       -0.2835389140       -1.5979046770
 H         -0.9408114537        0.8419643722       -1.7822057768
 H         -1.5936022111       -0.7867390987       -2.0308864960
 H         -2.6583489117        0.6204691233       -2.1198576485
 H         -2.9386555228       -0.5612745944        0.0691345767
 H         -2.2714199758        1.0668332040        0.3162453543
 H          2.9368727897        0.5753944696        0.0239252164
 H          2.2837188903       -1.0405767460        0.3690680612
 H          1.5757755973        0.6707860467       -2.0751088748
 H          2.6477112262       -0.7336435145       -2.0913520652
 H          0.9341180574       -0.9442795945       -1.7274317545
  16
        -20.16946614
 C         -2.5871881798       -0.9776410902       -0.5244774528
 C         -1.9571060906        0.3821008041       -0.7353358405
 S         -0.8507469633        0.8458801452        0.6566459488
 S          0.6425942078       -0.5118075097        0.5144543358
 C          1.8440409017        0.3513917866       -0.5865812221
 C          3.1339958022       -0.4394805433       -0.6460475824
 H         -3.2331489570       -1.2242072504       -1.3648114969
 H         -1.8164928203       -1.7421688255       -0.4406308530
 H         -3.1791232737       -0.9831273428        0.3878035657
 H         -2.7028371508        1.1751935334       -0.7559564919
 H         -1.3686675123        0.4184662727       -1.6518542589
 H          1.3862470877        0.4372628884       -1.5722691827
 H          2.0009294136        1.3445096029       -0.1675806143
 H          3.5665539136       -0.5333072797        0.3471082631
 H          2.9508908242       -1.4376701435       -1.0372498322
 H          3.8478728761        0.0653380004       -1.2936741750
  16
        -20.16946337
 C         -2.5972511286       -0.9788003478       -0.5063465316
 C         -1.9627578839        0.3759752451       -0.7352054111
 S         -0.8474268227        0.8509080581        0.6457868700
 S          0.6414228516       -0.5123661753        0.5108108809
 C          1.8380593040        0.3318499031       -0.6102261275
 C          3.1508501109       -0.4228615289       -0.6109033253
 H         -1.8290956722       -1.7451892651       -0.4166047833
 H         -3.1856908095       -0.9714722255        0.4081627202
 H         -3.2473431964       -1.2325965716       -1.3413482074
 H         -2.7055174899        1.1717379277       -0.7606030956
 H         -1.3789781980        0.4001940396       -1.6550758264
 H          1.3961057742        0.3583150994       -1.6065306001
 H          1.9592759790        1.3474395800       -0.2356458021
 H          3.5690123557       -0.4557051877        0.3922826460
 H          3.0029479223       -1.4437183364       -0.9557785923
 H          3.8608594646        0.0707669228       -1.2713206613
  16
        -20.16945869
 C         -2.6692090529        0.8161115591       -0.4749589298
 C         -1.9406511604       -0.4832913592       -0.7420199853
 S         -0.7888315586       -0.9134179896        0.6234989656
 S          0.6073086387        0.5467157177        0.5115612486
 C          1.8578476666       -0.1994542237       -0.6203278120
 C          3.1304854193        0.6202857258       -0.5807300515
 H         -3.2483546959        0.7433642474        0.4426393525
 H         -1.9576868653        1.6335725515       -0.3703724836
 H         -3.3426487613        1.0430112457       -1.2991269164
 H         -1.3605392074       -0.4411782102       -1.6635152983
 H         -2.6249617331       -1.3290692162       -0.7869125123
 H          2.0266930189       -1.2187178126       -0.2753847512
 H          1.4291867867       -0.2172154490       -1.6226125485
 H          3.8737295036        0.1816805126       -1.2434058694
 H          2.9358255862        1.6416012201       -0.8999146756
 H          3.5325594610        0.6461181345        0.4292012796
  16
        -20.16943798
 C         -3.1661531086       -0.2555060216       -0.6950543480
 C         -1.8510883942        0.4590892178       -0.4645507816
 S         -0.5930421590       -0.7408080812        0.1533195175
 S          0.7898055242        0.4778390150        0.9869770926
 C          1.9371353794        0.8143002448       -0.4083448674
 C          2.6697064451       -0.4343646920       -0.8494625846
 H         -3.9111443655        0.4491511911       -1.0590323219
 H         -3.0452638816       -1.0479378828       -1.4301332194
 H         -3.5241636343       -0.6972597498        0.2317677997
 H         -1.9443188182        1.2343118085        0.2947412578
 H         -1.4693473244        0.8933415056       -1.3889313997
 H          1.3531877121        1.2498982124       -1.2187371733
 H          2.6193644239        1.5655023984       -0.0134231206
 H          3.3419080005       -0.2017232045       -1.6730269948
 H          3.2507909267       -0.8427490791       -0.0259315432
 H          1.9608721155       -1.1915375135       -1.1806991808
  16
        -20.16940463
 C         -3.2091228514        0.3123735645       -0.4555230620
 C         -1.8133809288       -0.2149501613       -0.7139966715
 S         -0.6314672639        0.5272291077        0.4941848635
 S          0.8249233403       -0.8725936604        0.5973906040
 C          1.9869422558       -0.3597331375       -0.7305390350
 C          2.6341920446        0.9745528148       -0.4290771192
 H         -3.9068776546       -0.1223466187       -1.1684241279
 H         -3.5300777807        0.0554127203        0.5510940254
 H         -3.2323271429        1.3947416465       -0.5588887920
 H         -1.4708083189        0.0467140730       -1.7153663246
 H         -1.7620678991       -1.2940738504       -0.5774857515
 H          2.7185259659       -1.1653900938       -0.7658599733
 H          1.4297579417       -0.3387509657       -1.6668056992
 H          3.1933505607        0.9221869583        0.5022102218
 H          3.3143280843        1.2495025011       -1.2328188394
 H          1.8756704127        1.7499061186       -0.3332846071
  16
        -20.16938100
 C         -2.6488237892       -0.9700218109       -0.3942877246
 C         -1.9977672068        0.3548052245       -0.7276735500
 S         -0.8133088804        0.8818022389        0.5748961716
 S          0.6255816757       -0.5368039319        0.4848891270
 C          1.8124801141        0.1662081442       -0.7425152782
 C          3.2232185013       -0.2640235513       -0.3987166378
 H         -3.3462782730       -1.2515242951       -1.1805338034
 H         -1.8943341533       -1.7494692802       -0.3017138563
 H         -3.1892412536       -0.9000266701        0.5467435675
 H         -2.7247647496        1.1645392991       -0.7650806534
 H         -1.4547555540        0.3147319914       -1.6716068416
 H          1.5185564030       -0.1927949087       -1.7291565631
 H          1.7027208969        1.2486441133       -0.6965856111
 H          3.3044842220       -1.3484335080       -0.4137919220
 H          3.9233145735        0.1493267796       -1.1220225456
 H          3.4947185291        0.0881551542        0.5934929862
  16
        -20.16937502
 C         -2.6725616654       -0.9513161580       -0.3619957439
 C         -1.9960962664        0.3515008526       -0.7298464115
 S         -0.7967344682        0.8858929667        0.5559285369
 S          0.6194433668       -0.5562297388        0.4789088304
 C          1.8060124687        0.1007759054       -0.7749775968
 C          3.2297839741       -0.1837870079       -0.3446012658
 H         -3.2192401042       -0.8436447891        0.5720431676
 H         -3.3686001063       -1.2450106131       -1.1453533025
 H         -1.9319686379       -1.7399515255       -0.2395639264
 H         -2.7066926903        1.1745997086       -0.7869377325
 H         -1.4558616863        0.2762513244       -1.6734040026
 H          1.5762295195       -0.3803683091       -1.7258260443
 H          1.6181404701        1.1707793823       -0.8487504642
 H          3.4358197401        0.2846965554        0.6148215581
 H          3.3906640003       -1.2549134072       -0.2471118021
 H          3.9257738641        0.2085438140       -1.0835727231
  16
        -20.16918928
 C         -2.7679377837        0.4214621620       -1.1827075606
 C         -1.9541368695       -0.4419395924       -0.2411430297
 S         -0.6542667195        0.5761043347        0.5856830990
 S          0.8634461310       -0.7418590365        0.8159939736
 C          1.8229239187       -0.5135413137       -0.7352062566
 C          2.4563867156        0.8588517589       -0.8074493653
 H         -3.2442272562        1.2324579197       -0.6369427381
 H         -2.1317509741        0.8527699195       -1.9524527619
 H         -3.5396822891       -0.1782897510       -1.6611444727
 H         -1.4411014438       -1.2410574568       -0.7742736496
 H         -2.5756460310       -0.8718670307        0.5435648831
 H          2.5709773410       -1.3041018559       -0.7041575874
 H          1.1460907423       -0.6908961292       -1.5710954471
 H          3.0106482480        0.9660880125       -1.7377849957
 H          1.6894372775        1.6306323470       -0.7669733599
 H          3.1378823219        1.0057189301        0.0271487760
  16
        -20.16918791
 C         -2.7360445430        0.4010706878       -1.2171466300
 C         -1.9645529398       -0.4351459018       -0.2171274469
 S         -0.6550555792        0.5864875292        0.5905656192
 S          0.8608085196       -0.7330030865        0.8242307353
 C          1.8114535366       -0.5245507990       -0.7350930533
 C          2.4529977044        0.8431471581       -0.8241424922
 H         -2.0732395321        0.7794909367       -1.9921942149
 H         -3.5121873415       -0.2024010445       -1.6837040442
 H         -3.2036024248        1.2485264813       -0.7215995844
 H         -1.4615268277       -1.2722262333       -0.6988570506
 H         -2.6136888931       -0.8102965381        0.5732246484
 H          2.5548330829       -1.3194297226       -0.7015680664
 H          1.1280290516       -0.7054771109       -1.5647972591
 H          1.6911050267        1.6201205406       -0.7881646229
 H          3.1391177310        0.9941438641        0.0059177169
 H          3.0039165948        0.9374221214       -1.7578805488
  16
        -20.16889585
 C         -3.0577300528        0.3932835102       -0.6648965327
 C         -1.5827094503        0.1124762558       -0.8626841272
 S         -0.6898625190        0.3300728892        0.7393396282
 S          0.8558269828       -0.9671240669        0.5704173366
 C          2.2615062923        0.0970185773        0.0545548931
 C          2.0467962978        0.7416169243       -1.2980798690
 H         -3.4762550362       -0.2833199401        0.0762485460
 H         -3.2078603046        1.4146723170       -0.3225392015
 H         -3.5894758971        0.2576754374       -1.6046318569
 H         -1.1446057880        0.7964647739       -1.5892799365
 H         -1.4102620278       -0.9158806426       -1.1760028719
 H          2.4074920794        0.8412420576        0.8365741015
 H          3.1090341287       -0.5870777540        0.0428737022
 H          2.9400229018        1.2891722775       -1.5924936397
 H          1.8352586836       -0.0130481057       -2.0529635204
 H          1.2155636071        1.4429105693       -1.2565972087
  16
        -20.16886175
 C         -2.0190376236       -0.7425883911       -1.3167417021
 C         -2.2526356484       -0.1299265610        0.0476308038
 S         -0.8781912871        0.9619828492        0.5889292933
 S          0.7003835022       -0.2979483689        0.7426643847
 C          1.6082155860        0.0021121286       -0.8361600842
 C          3.0213697146       -0.5279735237       -0.7114075673
 H         -1.8264673845        0.0319625819       -2.0564625674
 H         -1.1707622560       -1.4238993795       -1.2869801499
 H         -2.8976468382       -1.3068240809       -1.6234444639
 H         -2.3801285939       -0.8927853277        0.8145601319
 H         -3.1181165671        0.5312434431        0.0474204667
 H          1.0670776139       -0.4978563858       -1.6388837719
 H          1.5980263898        1.0783177067       -1.0023363878
 H          3.0108358282       -1.5976210644       -0.5146888141
 H          3.5670958645       -0.3471739499       -1.6352178414
 H          3.5407360151       -0.0331938169        0.1057097002
  16
        -20.16885944
 C         -1.7209926459       -0.2508993964       -1.6093094472
 C         -2.0991703909        0.2612641937       -0.2359593808
 S         -0.9521683940       -0.3152883215        1.0792177230
 S          0.7800247415        0.6351364940        0.6358116045
 C          1.7481228850       -0.6472908003       -0.2776084376
 C          2.4261336948       -0.0440197255       -1.4905131770
 H         -2.4584088700        0.0731003947       -2.3411356596
 H         -0.7502933726        0.1407431330       -1.9067882165
 H         -1.6797879463       -1.3383616571       -1.6149762197
 H         -3.0686092278       -0.1200566611        0.0814327684
 H         -2.1081214340        1.3497360850       -0.2000050691
 H          2.4799850549       -1.0465547239        0.4236565958
 H          1.0481631520       -1.4331733337       -0.5545664523
 H          1.6922749251        0.3652160706       -2.1816869908
 H          3.0969177060        0.7573901400       -1.1900638024
 H          3.0038656805       -0.8072648319       -2.0084829209
  16
        -20.16885018
 C         -2.9786046394        0.4411427400       -0.8666725709
 C         -1.6277346421        0.7680372641       -0.2650669158
 S         -0.7056617573       -0.7988317216        0.0502432731
 S          0.8894164956       -0.1569633320        1.1217916859
 C          2.2432417617       -0.0956363390       -0.1186627362
 C          1.9918678536        0.9109419712       -1.2208763831
 H         -2.8579633975       -0.0871737332       -1.8097165341
 H         -3.5520828045       -0.1887694739       -0.1909275559
 H         -3.5343714295        1.3588414885       -1.0477328376
 H         -1.7289393938        1.2714537845        0.6954549405
 H         -1.0307925978        1.3819351328       -0.9384999072
 H          3.1190551186        0.1676698270        0.4728336551
 H          2.3634222932       -1.1032122086       -0.5146089572
 H          2.8552783904        0.9575928634       -1.8817771845
 H          1.1265749856        0.6178512370       -1.8125934476
 H          1.8187082214        1.9009144101       -0.8034803414
  16
        -20.16884650
 C         -2.9619485492        0.4252337433       -0.9040420195
 C         -1.6303068160        0.7625001479       -0.2664308753
 S         -0.7078522393       -0.7976803708        0.0795719111
 S          0.8934168451       -0.1316802380        1.1267933972
 C          2.2385960876       -0.0992971388       -0.1243338234
 C          1.9784203201        0.8803350269       -1.2486124711
 H         -3.5190237828        1.3387914472       -1.1016570526
 H         -2.8118283582       -0.1036543319       -1.8426074661
 H         -3.5491649303       -0.2078022125       -0.2430281950
 H         -1.7611020544        1.2689252370        0.6889743192
 H         -1.0184415295        1.3773863267       -0.9252398710
 H          3.1184549161        0.1785990188        0.4542311061
 H          2.3565993128       -1.1160406372       -0.4968112313
 H          1.1091140196        0.5724095048       -1.8267497187
 H          1.8075910168        1.8799403883       -0.8537467740
 H          2.8368993742        0.9116370198       -1.9167284467
  16
        -20.16882775
 C         -2.8984420656        0.6825526297       -0.8548702915
 C         -1.6519632102       -0.1723375936       -0.7600885223
 S         -0.7100456829        0.2864657573        0.7586511322
 S          0.9012939709       -0.9373455324        0.6520313142
 C          2.2262527522        0.1624907128        0.0104496786
 C          1.9359019276        0.6935225859       -1.3769367894
 H         -2.6347117033        1.7360446429       -0.9176780266
 H         -3.4665835780        0.4099242195       -1.7418049683
 H         -3.5254653248        0.5372277708        0.0214393619
 H         -0.9984103753       -0.0202849123       -1.6177995935
 H         -1.8983442434       -1.2298473198       -0.6723778829
 H          2.3515775786        0.9697995430        0.7308352300
 H          3.1113098447       -0.4720742120        0.0202777964
 H          2.7811527673        1.2801789071       -1.7317379924
 H          1.7646610469       -0.1257383589       -2.0727138498
 H          1.0581791996        1.3372690321       -1.3609663484
  16
        -20.16882110
 C         -2.5417647993        0.7471336883       -1.2266439956
 C         -1.7378315885       -0.3563170373       -0.5706334401
 S         -0.7388023562        0.3273631441        0.8253757485
 S          0.9233598292       -0.8294165157        0.8035301407
 C          2.1428390076        0.2097079263       -0.0974197313
 C          1.7577560202        0.4495721020       -1.5416437172
 H         -3.1379217878        0.3369955405       -2.0393588534
 H         -3.2088068881        1.2111705662       -0.5040526160
 H         -1.8848900200        1.5153751785       -1.6287099301
 H         -1.0401964172       -0.8151825246       -1.2686010038
 H         -2.3876320385       -1.1239004976       -0.1516302541
 H          2.2382201101        1.1442927122        0.4536590556
 H          3.0708198522       -0.3546502674       -0.0177512629
 H          1.6317921704       -0.4952508790       -2.0669246466
 H          0.8286094968        1.0135798519       -1.5985567927
 H          2.5359751112        1.0233892296       -2.0410883292
  16
        -20.16879942
 C         -1.7897404189       -0.5035350279       -1.5139322975
 C         -2.1566622607       -0.2113295228       -0.0746745601
 S         -0.9230771608        0.8541941188        0.7751099369
 S          0.7345026693       -0.3091038864        0.8141073782
 C          1.7216098332        0.3351076881       -0.6082575818
 C          2.6113889625       -0.7610190552       -1.1567959645
 H         -2.5759090287       -1.0919979922       -1.9829876670
 H         -1.6676108190        0.4217384810       -2.0738487010
 H         -0.8632295996       -1.0729729319       -1.5622068971
 H         -2.2482125362       -1.1256444096        0.5100830173
 H         -3.0818374991        0.3587692479       -0.0036827951
 H          1.0154910813        0.6912784687       -1.3559220107
 H          2.3088945306        1.1739969857       -0.2362418779
 H          2.0145142230       -1.5975171197       -1.5138148373
 H          3.2052729039       -0.3764384734       -1.9835177123
 H          3.2839277150       -1.1253667393       -0.3837242062
  16
        -20.16879897
 C         -2.7974887989        0.2763785204       -1.1785684092
 C         -1.6717894464        0.7174536322       -0.2664067347
 S         -0.7294549089       -0.7617842068        0.3076672831
 S          0.9215866709        0.0681699713        1.1384081310
 C          2.1968484799       -0.1447470462       -0.1678424699
 C          1.8808409972        0.6223022363       -1.4340384468
 H         -3.4661962855       -0.4022364275       -0.6545306528
 H         -3.3665429008        1.1427645878       -1.5092204558
 H         -2.4024887334       -0.2377095819       -2.0519188744
 H         -2.0521409669        1.2190510710        0.6228610301
 H         -0.9730011858        1.3736024523       -0.7825847310
 H          3.1094704463        0.2170154864        0.3036054317
 H          2.2864250235       -1.2134251752       -0.3582087390
 H          1.7528788810        1.6814245063       -1.2186874859
 H          2.6954506487        0.5087229131       -2.1467227866
 H          0.9711886346        0.2394527502       -1.8934404713
  16
        -20.16879251
 C         -1.8618495040       -0.6077117168       -1.4478662886
 C         -2.1911736207       -0.1945168963       -0.0292820707
 S         -0.9157112774        0.9001573360        0.7143384523
 S          0.7227962601       -0.2891989739        0.7858556930
 C          1.6887938230        0.2722803984       -0.6834813250
 C          2.7581256311       -0.7501881446       -1.0073266136
 H         -2.6753096599       -1.2041385509       -1.8564171460
 H         -1.7218102036        0.2675013701       -2.0794156414
 H         -0.9553026882       -1.2100299301       -1.4676196148
 H         -2.2948685053       -1.0581444153        0.6262334835
 H         -3.0998418083        0.4041834300        0.0138161196
 H          0.9895061885        0.3950927238       -1.5087343819
 H          2.1245159603        1.2381528990       -0.4298838172
 H          2.3083976200       -1.7120623643       -1.2434105779
 H          3.3417845976       -0.4165304463       -1.8627981839
 H          3.4253004029       -0.8826210835       -0.1589308759
  16
        -20.16878997
 C         -1.8133848964       -0.5466083293       -1.4888829211
 C         -2.1705771519       -0.2025444086       -0.0586355242
 S         -0.9204642822        0.8730923624        0.7531358534
 S          0.7288957006       -0.3017625979        0.8030656040
 C          1.7098940908        0.3151995660       -0.6348275215
 C          2.6662974449       -0.7621395196       -1.1023598943
 H         -1.6791909891        0.3580374958       -2.0788636744
 H         -0.8960025395       -1.1317095354       -1.5213048131
 H         -2.6101004226       -1.1377842753       -1.9361529720
 H         -2.2727797828       -1.0961541819        0.5556079835
 H         -3.0876276373        0.3821705388       -0.0031878899
 H          1.0033131539        0.5905922246       -1.4156242201
 H          2.2446495911        1.2035676935       -0.3002041053
 H          3.3397659907       -1.0464725977       -0.2973701332
 H          2.1203966026       -1.6472978184       -1.4212975028
 H          3.2569830715       -0.3945476496       -1.9389958949
  16
        -20.16878826
 C         -2.7059182436        0.2051184681       -1.2804440326
 C         -1.6888424649        0.6993176254       -0.2728640813
 S         -0.7419541505       -0.7321883625        0.4075606571
 S          0.9333468975        0.1481320125        1.1302118459
 C          2.1720719230       -0.1729385865       -0.1891833575
 C          1.8314862815        0.5085802616       -1.4973272731
 H         -3.2776154279        1.0444149259       -1.6709331904
 H         -2.2116093170       -0.2975542346       -2.1087175304
 H         -3.3916810402       -0.4976452876       -0.8133793999
 H         -2.1712624849        1.1938764651        0.5696380022
 H         -0.9704683903        1.3783495340       -0.7286632401
 H          3.1011362565        0.2081325025        0.2321854580
 H          2.2434607786       -1.2534154694       -0.3063531893
 H          2.6226108418        0.3304845064       -2.2229902936
 H          0.9025774454        0.1112544935       -1.9023904202
 H          1.7267989598        1.5823530882       -1.3545014720
  16
        -20.16869364
 C         -2.2209994039       -0.0931828637       -1.5820297157
 C         -1.8037046021        0.6191734187       -0.3115260884
 S         -0.8648743566       -0.5057095254        0.8132573002
 S          0.9486176736        0.3724218876        0.9961771941
 C          1.9753068716       -0.4594979243       -0.2846167129
 C          1.8767550874        0.2173408394       -1.6361162310
 H         -1.3535841507       -0.4615343472       -2.1258000930
 H         -2.8599266805       -0.9409445339       -1.3467843996
 H         -2.7704784607        0.5899901019       -2.2269978074
 H         -2.6732330578        0.9534625138        0.2527480417
 H         -1.1566400342        1.4707371670       -0.5130817789
 H          2.9900247500       -0.4104776271        0.1076465908
 H          1.6522652019       -1.4985199741       -0.3227834464
 H          0.8591266682        0.1746551358       -2.0178024018
 H          2.1745268140        1.2607714455       -1.5598301249
 H          2.5315025250       -0.2808347331       -2.3487608861
  16
        -20.16867295
 C         -2.1835342684       -0.0058646602       -1.6012410425
 C         -1.9106899092        0.4827639290       -0.1934549278
 S         -0.7612176404       -0.6214001161        0.7367506676
 S          0.8990646190        0.5188010478        0.9848282813
 C          2.1182213184       -0.1889974172       -0.1927643390
 C          1.6916606167       -0.0669789899       -1.6388007989
 H         -2.9334455601        0.6291596428       -2.0694333498
 H         -1.2823900639        0.0244965880       -2.2087041363
 H         -2.5564750983       -1.0273462028       -1.5820666004
 H         -2.8272162602        0.4989358252        0.3951438534
 H         -1.4617367230        1.4741625767       -0.1861882392
 H          3.0217624755        0.3844399733        0.0100292432
 H          2.2774199578       -1.2278650458        0.0931021122
 H          2.4889952914       -0.4181737467       -2.2909973305
 H          0.8082912430       -0.6759299388       -1.8213667072
 H          1.4685258054        0.9689583471       -1.8870919501
  16
        -20.16866534
 C         -1.8965443154        0.0979141178       -1.6607757485
 C         -1.9721030524       -0.4013276267       -0.2325119406
 S         -0.9128433771        0.5809828249        0.9088275584
 S          0.8522410459       -0.4071030061        0.9125344360
 C          1.8493703546        0.4345534765       -0.3937734533
 C          2.1442726799       -0.4955048381       -1.5530439427
 H         -0.8845564392        0.0113978195       -2.0498400733
 H         -2.5594385222       -0.4886162543       -2.2942100036
 H         -2.1977889168        1.1417148518       -1.7129149657
 H         -1.6540578438       -1.4386750924       -0.1431786079
 H         -2.9793917951       -0.2964899890        0.1677184621
 H          1.2818989612        1.3099426381       -0.7040588428
 H          2.7690491257        0.7559425725        0.0930034260
 H          2.7050430251       -1.3611663416       -1.2086745686
 H          1.2243463459       -0.8480285632       -2.0149568970
 H          2.7330226466        0.0251694173       -2.3060830524
  16
        -20.16864276
 C         -2.0832486880       -0.1603748176       -1.6166408870
 C         -1.8424629512        0.5892907152       -0.3220475931
 S         -0.9090863071       -0.4338244987        0.8970077133
 S          0.9327742665        0.4004591344        0.9444720201
 C          1.8920175358       -0.5473722880       -0.3116856717
 C          1.9848405700        0.1895478794       -1.6322733604
 H         -2.6577134825       -1.0641114598       -1.4274491353
 H         -2.6385225824        0.4671973737       -2.3113899797
 H         -1.1429288709       -0.4456432481       -2.0836520649
 H         -2.7834566202        0.8393113133        0.1657652126
 H         -1.2637777907        1.4984623053       -0.4749474316
 H          2.8777945440       -0.6856330625        0.1298392792
 H          1.4040630028       -1.5150707304       -0.4142424930
 H          2.4612605627        1.1570291108       -1.4914894776
 H          2.5746040557       -0.3900477646       -2.3401244664
 H          0.9973742850        0.3526283028       -2.0584519030
  16
        -20.16727523
 C         -3.3037971701       -0.0122249585       -0.6009404077
 C         -1.8481482513       -0.4222457664       -0.6768733126
 S         -0.8816475222        0.4945658430        0.5998624915
 S          0.8814054744       -0.4932930570        0.6006447801
 C          1.8491169593        0.4236872491       -0.6750409479
 C          3.3033628521        0.0081677102       -0.6025040332
 H         -3.7098779440       -0.2383704344        0.3819848176
 H         -3.4078144475        1.0555832825       -0.7790590032
 H         -3.8793402404       -0.5504357189       -1.3512520563
 H         -1.4193451198       -0.1827092333       -1.6500561944
 H         -1.7187777457       -1.4834934985       -0.4687785140
 H          1.4179015945        0.1883520989       -1.6481732703
 H          1.7239103454        1.4848231614       -0.4638615016
 H          3.7118164891        0.2301781103        0.3803814002
 H          3.4031791984       -1.0595312857       -0.7836482080
 H          3.8796788486        0.5462895401       -1.3522827460
  16
        -20.16727159
 C         -3.3164142023       -0.0218518009       -0.5699107566
 C         -1.8578019355       -0.4131870280       -0.6801230531
 S         -0.8762480545        0.5035219182        0.5852446930
 S          0.8773670472       -0.5006811610        0.5909389024
 C          1.8533920959        0.3933242428       -0.6952709603
 C          3.3183709815        0.0351200914       -0.5598318932
 H         -3.6999667103       -0.2656768925        0.4177929976
 H         -3.4365474921        1.0468661541       -0.7318166104
 H         -3.9006377275       -0.5570502740       -1.3157497615
 H         -1.4521550974       -0.1595004571       -1.6596483413
 H         -1.7114111137       -1.4745214170       -0.4845359732
 H          1.4621243248        0.1003600139       -1.6696955873
 H          1.6845161618        1.4572706341       -0.5350855453
 H          3.4616028039       -1.0352271238       -0.6888393631
 H          3.8990047845        0.5599442800       -1.3157471202
 H          3.6871091201        0.3157599038        0.4237959787
  16
        -20.16719823
 C         -3.3262816312        0.0266495031       -0.5410793861
 C         -1.8890870328       -0.4410245559       -0.6333370919
 S         -0.8469588706        0.5319028022        0.5380122413
 S          0.8675508664       -0.5359334624        0.5871411907
 C          1.8509712133        0.1966831505       -0.7946680951
 C          3.3205633447        0.2188841885       -0.4302900271
 H         -3.9452831689       -0.5411821205       -1.2326312763
 H         -3.7062984536       -0.1148967983        0.4677549323
 H         -3.3995038376        1.0824454363       -0.7914824822
 H         -1.4857433617       -0.2906270320       -1.6349127527
 H         -1.7887598676       -1.4877549116       -0.3496295681
 H          1.6712835511       -0.4109928684       -1.6816916704
 H          1.4637988544        1.2021708939       -0.9516136835
 H          3.8979466242        0.6487529933       -1.2464180241
 H          3.4793793672        0.8156959065        0.4646307152
 H          3.6805402109       -0.7896096959       -0.2406831493
  16
        -20.16691977
 C         -3.1324817274        0.1968477023       -0.8434743740
 C         -1.7208204561       -0.3428810774       -0.7503058422
 S         -0.9021468626        0.3303964333        0.7601890508
 S          0.9151924611       -0.5503150993        0.6770715251
 C          1.9199235907        0.6694833034       -0.2808171099
 C          2.9118212967       -0.0538513866       -1.1678063704
 H         -3.6201488665       -0.1943355408       -1.7339621587
 H         -3.7087568396       -0.0978015296        0.0301234457
 H         -3.1219225455        1.2830685935       -0.8979617378
 H         -1.1224062583       -0.0400183632       -1.6097514508
 H         -1.7103803879       -1.4284990478       -0.6617622577
 H          1.2210927443        1.2658157281       -0.8652049985
 H          2.4244792717        1.3093814120        0.4420465725
 H          3.5067445810        0.6683156617       -1.7236802535
 H          3.5791927886       -0.6675283804       -0.5675232780
 H          2.3940370483       -0.6992077923       -1.8738411605
  16
        -20.16671142
 C         -2.9611179284        0.0621044219       -1.1247458020
 C         -2.0114841010       -0.6214310666       -0.1629037525
 S         -0.8534327377        0.6164166516        0.5730257156
 S          0.8760282745       -0.4148188840        0.7428802318
 C          1.7211537452       -0.0680642516       -0.8646415770
 C          3.1963429056        0.1854821581       -0.6353444194
 H         -3.6443383520       -0.6688812631       -1.5524595642
 H         -3.5421030560        0.8223797708       -0.6081795086
 H         -2.4095909387        0.5396243307       -1.9315665620
 H         -1.3990038179       -1.3666826154       -0.6674302696
 H         -2.5480259358       -1.0901021450        0.6612637133
 H          1.5632837808       -0.9328499189       -1.5092297561
 H          1.2283926141        0.8039772152       -1.2911256916
 H          3.6643268918       -0.6820691191       -0.1760189988
 H          3.6895517024        0.3874807625       -1.5842395729
 H          3.3354551151        1.0407209825        0.0215677434
  16
        -20.16648773
 C         -2.7449816711        0.2937143017       -1.2607196211
 C         -1.8093460316       -0.5974668429       -0.4704130001
 S         -0.9239051682        0.3903587186        0.8177725010
 S          0.9278589754       -0.4189756370        0.8145513745
 C          1.8305371323        0.6165440928       -0.4237530467
 C          2.7160908730       -0.2524915097       -1.2926647415
 H         -3.2748505218       -0.2951582222       -2.0068787451
 H         -3.4738079579        0.7578345601       -0.6007022969
 H         -2.1897151217        1.0808258016       -1.7660302164
 H         -1.0464011453       -1.0422203010       -1.1070298173
 H         -2.3537366879       -1.3860006415        0.0475730918
 H          1.0742514608        1.1333887121       -1.0118658845
 H          2.4151756308        1.3459710714        0.1352950358
 H          3.2510303386        0.3660174699       -2.0108220760
 H          3.4414867364       -0.7844891287       -0.6817727285
 H          2.1225579477       -0.9844889946       -1.8359204276
