  5
        -10.76495288
 C         -0.0000162739        1.0984487334        0.0000008087
 I         -1.8019517633       -0.0655710481        0.0000000377
 I          1.8019536940       -0.0655696682        0.0000002152
 H         -0.0000471107        1.7109582995        0.8938932838
 H         -0.0000020454        1.7108884098       -0.8939347658
