  12
        -27.24410813
 C          1.6507746962       -1.2350823042        0.0085871599
 C          0.9403565934        0.0234740779       -0.4850035620
 H          0.9437531862        0.0749069181       -1.5791756744
 C         -0.5306117853       -0.0095145105       -0.0342181770
 F         -0.6264943193        0.0393305261        1.3071595470
 F         -1.2379668976        1.0204269748       -0.5065575994
 F         -1.1592511293       -1.1266872658       -0.4263490389
 O          1.5398866756        1.2055680055       -0.0439143318
 H          2.6950005316       -1.1929904108       -0.2881086168
 H          1.1933138561       -2.1215129530       -0.4213184466
 H          1.5941190737       -1.2988645699        1.0941987442
 H          1.5701760779        1.2148166942        0.9221829669
