  12
  -27.2441081300000       9.205774926381648E-002 !md5
 C          1.6507746962       -1.2350823042        0.0085871599
 C          0.9403565934        0.0234740779       -0.4850035620
 H          0.9437531862        0.0749069181       -1.5791756744
 C         -0.5306117853       -0.0095145105       -0.0342181770
 F         -0.6264943193        0.0393305261        1.3071595470
 F         -1.2379668976        1.0204269748       -0.5065575994
 F         -1.1592511293       -1.1266872658       -0.4263490389
 O          1.5398866756        1.2055680055       -0.0439143318
 H          2.6950005316       -1.1929904108       -0.2881086168
 H          1.1933138561       -2.1215129530       -0.4213184466
 H          1.5941190737       -1.2988645699        1.0941987442
 H          1.5701760779        1.2148166942        0.9221829669
  12
  -27.2441081200000       9.205677511853616E-002 !mtd10
 C          1.4291177795       -0.5383537763       -1.3849533981
 C          0.9831623353        0.3302973249       -0.2107153669
 H          1.1225511395        1.3940715793       -0.4317237533
 C         -0.5180669174        0.1106312721        0.0465432924
 F         -0.9988484616        0.9066091054        1.0054671174
 F         -1.2602310203        0.3273892237       -1.0485852893
 F         -0.7618559219       -1.1540537106        0.4365128235
 O          1.7010080415        0.0852845098        0.9622669524
 H          1.2364437233       -1.5886329214       -1.1716559128
 H          2.4948648122       -0.4006892017       -1.5438545024
 H          0.8948504204       -0.2579161086       -2.2881037361
 H          1.6195173140       -0.8465525643        1.2057349919
  12
  -27.2441081100000       9.205580098356415E-002 !md1
 C          1.4291840813       -0.5390092246       -1.3846351601
 C          0.9830943315        0.3302693578       -0.2109255893
 H          1.1224231269        1.3939269716       -0.4324589296
 C         -0.5180852659        0.1106104930        0.0465299575
 F         -0.9986882834        0.9065086986        1.0054947214
 F         -1.2603986962        0.3275179219       -1.0485153106
 F         -0.7618758345       -1.1540704657        0.4363507847
 O          1.7010432364        0.0859252036        0.9622113532
 H          2.4946356324       -0.3999753014       -1.5447955406
 H          0.8934653539       -0.2603923000       -2.2875509924
 H          1.2382185752       -1.5893655255       -1.1698513737
 H          1.6196816428       -0.8459090998        1.2060231741
  12
  -27.2441081100000       9.205580098356415E-002 !gc
 C          1.6504962615       -1.2353642836        0.0075603952
 C          0.9403854541        0.0237688568       -0.4850135057
 H          0.9438772884        0.0762093793       -1.5791358229
 C         -0.5305840733       -0.0094615787       -0.0342929401
 F         -0.6263913101        0.0401173672        1.3070869585
 F         -1.2381863109        1.0200326133       -0.5071906147
 F         -1.1589923870       -1.1269926020       -0.4257147356
 O          1.5399729782        1.2054423200       -0.0428248566
 H          1.1928705494       -2.1214130639       -0.4229540256
 H          1.5940243734       -1.2999274394        1.0931119383
 H          2.6946852573       -1.1931972550       -0.2892615727
 H          1.5694961878        1.2142532720        0.9233133566
  12
  -27.2441081100000       9.205580098356415E-002 !mtd12
 C          1.8047642034       -0.0207659748        0.9966094405
 C          0.9777160357       -0.3166185392       -0.2526921315
 H          1.1052416403       -1.3562883834       -0.5731267031
 C         -0.5150996535       -0.1164302155        0.0628491205
 F         -0.9163614471       -0.8447635323        1.1143505985
 F         -0.7785527287        1.1695757183        0.3584688526
 F         -1.3072010841       -0.4441197687       -0.9616041523
 O          1.3347727565        0.4694248986       -1.3508170634
 H          1.6284733662        0.9999840567        1.3324513177
 H          2.8587903145       -0.1371635582        0.7606716215
 H          1.5406461316       -0.7061730576        1.7968222783
 H          1.2469607586        1.4049243763       -1.1242218229
  12
  -27.2441081000000       9.205482685890033E-002 !mtd2
 C          1.8044678884       -0.0199303822        0.9967490250
 C          0.9777576598       -0.3167348647       -0.2524794332
 H          1.1055259360       -1.3565710423       -0.5723715635
 C         -0.5150438446       -0.1164494562        0.0629050075
 F         -0.9163579906       -0.8449603733        1.1142731601
 F         -0.7786236181        1.1695998555        0.3586169501
 F         -1.3069912380       -0.4439215928       -0.9617052682
 O          1.3347747278        0.4687219091       -1.3511101874
 H          1.5419081285       -0.7063506338        1.7966502191
 H          1.6263041016        1.0003350405        1.3332714414
 H          2.8586952461       -0.1342251002        0.7603617931
 H          1.2473331403        1.4044321743       -1.1249521546
  12
  -27.2441081000000       9.205482685890033E-002 !mtd10
 C          1.6507689449       -1.2349426320        0.0092360982
 C          0.9403493780        0.0233641015       -0.4850373615
 H          0.9437631045        0.0744195212       -1.5792189272
 C         -0.5305908015       -0.0095761260       -0.0342374862
 F         -0.6263245332        0.0388269263        1.3071669256
 F         -1.2377418976        1.0206614681       -0.5062619287
 F         -1.1595251055       -1.1265822365       -0.4266815630
 O          1.5397138396        1.2057487023       -0.0444521833
 H          1.5939322675       -1.2983156856        1.0948585578
 H          2.6949725176       -1.1928133707       -0.2871751882
 H          1.1934994259       -2.1216401662       -0.4203031692
 H          1.5705662686        1.2153101543        0.9216107211
  12
  -27.2441081000000       9.205482685890033E-002 !mtd6
 C          1.8045659385       -0.0208397913        0.9967183883
 C          0.9777246464       -0.3165950740       -0.2527277493
 H          1.1053166908       -1.3562482317       -0.5732247158
 C         -0.5150586316       -0.1163757973        0.0628373902
 F         -0.9162402955       -0.8448411201        1.1143097599
 F         -0.7786469524        1.1696031129        0.3584851585
 F         -1.3071139588       -0.4441642364       -0.9616171707
 O          1.3348182507        0.4695381541       -1.3508247062
 H          2.8585645575       -0.1378942676        0.7609535599
 H          1.5399133534       -0.7058903705        1.7970491317
 H          1.6287731880        1.0001012212        1.3322732552
 H          1.2464436350        1.4051531077       -1.1243594726
  12
  -27.2441080700000       9.205190454710301E-002 !md2
 C          1.4289525273       -0.5398509078       -1.3842972078
 C          0.9830853359        0.3303331475       -0.2111673152
 H          1.1222443559        1.3938473706       -0.4334985804
 C         -0.5180952572        0.1106642045        0.0465808991
 F         -0.9985938386        0.9063126204        1.0056667434
 F         -1.2605003995        0.3275722173       -1.0484694065
 F         -0.7617925611       -1.1541593351        0.4361455668
 O          1.7011868400        0.0868757168        0.9620545161
 H          0.8933333081       -0.2615875082       -2.2873557562
 H          1.2376958024       -1.5900506704       -1.1689736872
 H          2.4943112242       -0.4012017001       -1.5446799004
 H          1.6201128961       -0.8448335399        1.2063705689
  12
  -27.2423957800000       1.503553128996151E-002 !gc
 C          1.8245807438        0.1516894309        0.9654572930
 C          0.9745053517       -0.3463278855       -0.1959836143
 H          1.0747532968       -1.4395235595       -0.3082689949
 C         -0.5129001169       -0.0898517938        0.0949201955
 F         -0.9523296723       -0.8193637536        1.1297022554
 F         -0.7892506907        1.1867887451        0.3682207005
 F         -1.2718867255       -0.4292368893       -0.9659445037
 O          1.3600099804        0.3216627292       -1.3625044759
 H          1.6996438689        1.2261864547        1.0705159143
 H          2.8681519039       -0.0585442461        0.7537634320
 H          1.5313610048       -0.3440226404        1.8863789144
 H          0.7954615533        0.0651835451       -2.1023794819
  12
  -27.2423957800000       1.503553128996151E-002 !hor
 C          1.6977193379       -1.1791290344        0.1084466423
 C          0.9287908515       -0.0112107694       -0.4951580414
 H          0.8784226330       -0.1070758578       -1.5933396325
 C         -0.5281970229       -0.0334786217       -0.0057244849
 F         -0.6431036739       -0.0376997018        1.3237305735
 F         -1.1960269553        1.0511798175       -0.4463739354
 F         -1.1921347336       -1.1041735794       -0.4629975025
 O          1.5463334132        1.1852508168       -0.1173810115
 H          2.7164770023       -1.1610672193       -0.2655031656
 H          1.2261357543       -2.1197863595       -0.1608691720
 H          1.7214439114       -1.0763101951        1.1901229837
 H          1.0435367890        1.9431679880       -0.4409611126
  12
  -27.2423957700000       1.503537218563019E-002 !mtd1
 C          1.6977411402       -1.1792976371        0.1077605390
 C          0.9288060248       -0.0110827847       -0.4951879845
 H          0.8785249517       -0.1064113206       -1.5934158817
 C         -0.5282399144       -0.0334388198       -0.0058779652
 F         -0.6431551206       -0.0371976369        1.3237092259
 F         -1.1959952473        1.0510220941       -0.4467224183
 F         -1.1920747540       -1.1044546709       -0.4625731532
 O          1.5463002338        1.1851645525       -0.1167318058
 H          1.7214587707       -1.0770303025        1.1894922973
 H          2.7164849904       -1.1609951376       -0.2662102818
 H          1.2261719635       -2.1198181576       -0.1620541872
 H          1.0432140796        1.9433701297       -0.4393331601
  12
  -27.2423957600000       1.503521308292597E-002 !mtd5
 C          1.4726192045       -0.6458719030       -1.3032744635
 C          0.9683032351        0.3297918725       -0.2481546033
 H          1.0346423847        1.3676208996       -0.6172728653
 C         -0.5226347471        0.0784781565        0.0288022646
 F         -0.9595369676        0.8615490986        1.0350500605
 F         -1.2833988508        0.3639895826       -1.0370269290
 F         -0.7940588307       -1.1800645685        0.3799125428
 O          1.7121343633        0.1588590740        0.9236323508
 H          0.8979982772       -0.5402828895       -2.2189639643
 H          1.3834863917       -1.6621043735       -0.9284435702
 H          2.5191992709       -0.4388211065       -1.5028557583
 H          1.3720981580        0.7261629816        1.6268316956
  12
  -27.2423957500000       1.503505398190536E-002 !mtd1
 C          1.6976615480       -1.1791276289        0.1086846308
 C          0.9288229741       -0.0112617708       -0.4951694363
 H          0.8784926023       -0.1073527663       -1.5933077439
 C         -0.5281749343       -0.0335487394       -0.0057405243
 F         -0.6430498991       -0.0378756216        1.3237505617
 F         -1.1959235834        1.0512495864       -0.4462453982
 F         -1.1921873203       -1.1040805064       -0.4631133251
 O          1.5462089804        1.1853674723       -0.1175901795
 H          1.2252073721       -2.1197895651       -0.1590201942
 H          1.7226836616       -1.0750867535        1.1902530351
 H          2.7160149002       -1.1621792278       -0.2664590456
 H          1.0436645407        1.9431580037       -0.4418213941
  12
  -27.2423957400000       1.503489488256833E-002 !mtd4
 C          1.4725456318       -0.6451428436       -1.3037285465
 C          0.9683240318        0.3298843189       -0.2479561585
 H          1.0349947647        1.3679544622       -0.6161867300
 C         -0.5225743064        0.0784948595        0.0287306625
 F         -0.9595786604        0.8618941058        1.0347719809
 F         -1.2834279116        0.3636757308       -1.0370912455
 F         -0.7938851813       -1.1798810066        0.3802080903
 O          1.7119701961        0.1578373641        0.9239494502
 H          2.5189225967       -0.4377796470       -1.5034081106
 H          0.8977845680       -0.5393272067       -2.2192805432
 H          1.3837502649       -1.6615656532       -0.9292541606
 H          1.3725474028        0.7254760477        1.6271741969
  12
  -27.2423957300000       1.503473578491489E-002 !mtd9
 C          1.8244307266        0.1530003320        0.9654032283
 C          0.9745621785       -0.3462979889       -0.1956137296
 H          1.0747786124       -1.4396329807       -0.3066136721
 C         -0.5129209026       -0.0896952952        0.0949382262
 F         -0.9525104726       -0.8194012516        1.1296830047
 F         -0.7894322182        1.1868750633        0.3683538986
 F         -1.2716528423       -0.4291779885       -0.9660395388
 O          1.3601683592        0.3203561803       -1.3628191480
 H          1.5326473860       -0.3434562726        1.8864442459
 H          1.6983160119        1.2272397787        1.0707531000
 H          2.8681445839       -0.0557965752        0.7528818734
 H          0.7967502835        0.0617922021       -2.1027955956
  12
  -27.2423957200000       1.503457668900151E-002 !gc
 C          1.4724288229       -0.6429959926       -1.3049209362
 C          0.9684353136        0.3300878406       -0.2472621994
 H          1.0353875635        1.3688704807       -0.6134603392
 C         -0.5225797937        0.0786200933        0.0289272987
 F         -0.9601322109        0.8623336455        1.0344658587
 F         -1.2830141917        0.3631901631       -1.0374338708
 F         -0.7937307326       -1.1797625164        0.3808323250
 O          1.7119715623        0.1555921920        0.9242563002
 H          1.3835095496       -1.6600522585       -0.9324272110
 H          2.5188990603       -0.4355127336       -1.5044576657
 H          0.8975653377       -0.5354476182       -2.2201126617
 H          1.3724721144        0.7216726598        1.6286900875
  12
  -27.2423956900000       1.503409941119297E-002 !mtd9
 C          1.8244320587        0.1551685235        0.9651740888
 C          0.9746545745       -0.3464176362       -0.1949274259
 H          1.0749766337       -1.4399288586       -0.3038445016
 C         -0.5129283822       -0.0896143835        0.0950567669
 F         -0.9528794572       -0.8193929190        1.1296289843
 F         -0.7894647514        1.1869415071        0.3685666849
 F         -1.2713441584       -0.4289781040       -0.9661927007
 O          1.3602255827        0.3181388114       -1.3633320112
 H          2.8679976819       -0.0556775384        0.7542323746
 H          1.5310478719       -0.3376881234        1.8875692667
 H          1.6995032321        1.2299411149        1.0668543690
 H          0.7969251532        0.0581444266       -2.1029665942
  12
  -27.2408570100000       2.950863019244601E-003 !md6
 C          1.6565502564       -1.2266663016        0.0639003063
 C          0.9292311684       -0.0073286741       -0.4961609699
 H          0.8862810871       -0.0536551821       -1.5977140978
 C         -0.5254324214       -0.0038835017       -0.0131631747
 F         -0.6279508918        0.0071092698        1.3172575373
 F         -1.2138170445        1.0415804036       -0.4747673204
 F         -1.1726834976       -1.1042015041       -0.4391045389
 O          1.4774177759        1.2097017614       -0.0663856520
 H          2.6755347426       -1.2549675367       -0.3154341950
 H          1.1459854965       -2.1384451719       -0.2337009015
 H          1.6831209033       -1.1703947953        1.1500114837
 H          2.4245398981        1.2126526795       -0.2449185606
  12
  -27.2408570000000       2.950831793526983E-003 !mtd1
 C          1.4327574726       -0.6211522370       -1.3469523828
 C          0.9716202895        0.3265958272       -0.2430293220
 H          1.0584956605        1.3762731905       -0.5718260658
 C         -0.5143628188        0.0945220528        0.0524608610
 F         -0.9757576272        0.9000515500        1.0107797965
 F         -1.2618860147        0.3352388280       -1.0402041204
 F         -0.7772807474       -1.1596047874        0.4250517611
 O          1.6390088983        0.1253035976        0.9736742689
 H          0.8314032815       -0.4784592756       -2.2405770608
 H          1.3339690422       -1.6510463311       -1.0105499715
 H          2.4746513575       -0.4251217945       -1.5898955697
 H          2.5906076211        0.1464315572        0.8217884983
  12
  -27.2408570000000       2.950831793526983E-003 !mtd2
 C          1.4330303825       -0.6215806039       -1.3467154938
 C          0.9715509523        0.3264505410       -0.2431581079
 H          1.0581994992        1.3759858302       -0.5723455504
 C         -0.5144092107        0.0944766748        0.0525595868
 F         -0.9757357185        0.8999161472        1.0109000965
 F         -1.2620229622        0.3353941803       -1.0401989971
 F         -0.7773958718       -1.1596126523        0.4248654064
 O          1.6391273113        0.1257591135        0.9735650135
 H          2.4750389981       -0.4257148564       -1.5895387521
 H          0.8317999763       -0.4789473672       -2.2404384733
 H          1.3339696440       -1.6513956711       -1.0100468197
 H          2.5907045169        0.1480676707        0.8217275195
  12
  -27.2408569700000       2.950738118367772E-003 !mtd12
 C          1.8073652586        0.0396057593        0.9925944871
 C          0.9700943040       -0.3437065015       -0.2246056061
 H          1.0618409708       -1.4231044328       -0.4340886563
 C         -0.5135431118       -0.0909576787        0.0656527867
 F         -0.9295604264       -0.8334747306        1.1080481895
 F         -0.7693287710        1.1809666473        0.3780552566
 F         -1.2971572347       -0.4137486687       -0.9647510053
 O          1.2710466830        0.4155968672       -1.3644799741
 H          1.7001347219        1.1040635655        1.1903553082
 H          2.8552867485       -0.1831197962        0.8046012196
 H          1.4808685991       -0.5200146396        1.8648010244
 H          2.2204558669        0.3817530913       -1.5275355339
  12
  -27.2408569700000       2.950738118367772E-003 !gc
 C          1.6564865907       -1.2267700036        0.0636064658
 C          0.9292064362       -0.0072607047       -0.4961851075
 H          0.8861492176       -0.0533743667       -1.5977528357
 C         -0.5254179425       -0.0038497682       -0.0131399526
 F         -0.6280048710        0.0073455348        1.3172612221
 F         -1.2138370044        1.0414797116       -0.4748999030
 F         -1.1725537416       -1.1043436251       -0.4388786610
 O          1.4774400689        1.2096463473       -0.0660438839
 H          1.1470153217       -2.1385509749       -0.2357152157
 H          1.6817386243       -1.1717340684        1.1498407331
 H          2.6759603810       -1.2538962444       -0.3144475288
 H          2.4240734641        1.2137725423       -0.2474221087
  12
  -27.2408569700000       2.950738118367772E-003 !gc
 C          1.6564556403       -1.2269726497        0.0628749657
 C          0.9292041566       -0.0070870379       -0.4961852311
 H          0.8861964995       -0.0524739228       -1.5977985538
 C         -0.5254151837       -0.0039055303       -0.0131391872
 F         -0.6280279818        0.0078991214        1.3172552103
 F         -1.2139763586        1.0412541499       -0.4753544687
 F         -1.1724369217       -1.1045291622       -0.4384558063
 O          1.4775193022        1.2095488215       -0.0653191113
 H          1.6818696747       -1.1725044935        1.1491713426
 H          2.6758870662       -1.2540135402       -0.3154015676
 H          1.1467550469       -2.1384889133       -0.2369070176
 H          2.4241944824        1.2135699091       -0.2466456070
  12
  -27.2408569400000       2.950644446182310E-003 !gc
 C          1.8073039054        0.0423261688        0.9925919779
 C          0.9702179847       -0.3438516124       -0.2238076651
 H          1.0624122647       -1.4237159131       -0.4307313332
 C         -0.5135234860       -0.0909510460        0.0657881371
 F         -0.9300471008       -0.8337905315        1.1077368918
 F         -0.7693109696        1.1808631415        0.3785128197
 F         -1.2968567046       -0.4132174382       -0.9649696103
 O          1.2711263980        0.4128496370       -1.3653882594
 H          2.8556277336       -0.1780416030        0.8042378092
 H          1.4825727883       -0.5172549880        1.8653948026
 H          1.6978072314        1.1066028178        1.1895906585
 H          2.2210980474        0.3827187828       -1.5256688926
  12
  -27.2408569000000       2.950519554557001E-003 !mtd3
 C          1.4328492430       -0.6217939448       -1.3466368849
 C          0.9715483162        0.3265203976       -0.2432086300
 H          1.0581857412        1.3760344100       -0.5725669321
 C         -0.5143778516        0.0944727833        0.0524804756
 F         -0.9755531608        0.8998082453        1.0109661255
 F         -1.2620048563        0.3353974409       -1.0402774452
 F         -0.7773786964       -1.1597273317        0.4248373684
 O          1.6390143229        0.1258624393        0.9735681017
 H          1.3325053888       -1.6515553139       -1.0102403954
 H          2.4753008293       -0.4270551076       -1.5883461476
 H          0.8326449651       -0.4784038344       -2.2409197647
 H          2.5905794584        0.1532255980        0.8227527885
  12
  -27.2408568900000       2.950488332473891E-003 !mtd1
 C          1.8069120601        0.0408150837        0.9928775158
 C          0.9701786549       -0.3435981637       -0.2243926118
 H          1.0619376869       -1.4232688498       -0.4326289095
 C         -0.5134632026       -0.0908281963        0.0656498612
 F         -0.9295088399       -0.8338183444        1.1078330503
 F         -0.7696204952        1.1809008536        0.3782641269
 F         -1.2970380087       -0.4136357099       -0.9648914654
 O          1.2714373607        0.4145685781       -1.3648781711
 H          1.4830840359       -0.5210228779        1.8646680553
 H          1.6966582889        1.1046306763        1.1921678826
 H          2.8553471508       -0.1782653221        0.8035288577
 H          2.2210804899        0.3821697111       -1.5263919544
  12
  -27.2405046300000       2.032387028219303E-003 !mtd7
 C          1.6291948213        1.1912227892       -0.5422181592
 C          1.0417889432       -0.0053180946        0.2028836466
 H          1.3277565671        0.0265949994        1.2605445719
 C         -0.5128224414        0.0255058485        0.1628284655
 F         -1.0432175481        0.1634673062        1.3854274866
 F         -1.0063262530        1.0348647351       -0.5735962095
 F         -1.0190086302       -1.0965526830       -0.3613232857
 O          1.5201553581       -1.2282574498       -0.2689166252
 H          2.7129268084        1.1409270785       -0.4840425914
 H          1.2913993656        2.1221655171       -0.0964470498
 H          1.3302293686        1.1751212473       -1.5886807233
 H          1.3288945784       -1.3221505936       -1.2110410802
  12
  -27.2405026000000       2.028025871289904E-003 !mtd7
 C          1.6414009037        1.2146115106       -0.4416822516
 C          1.0413403670       -0.0334662202        0.2018474101
 H          1.3257927717       -0.0915106215        1.2588121832
 C         -0.5126641983        0.0173478322        0.1640341894
 F         -1.0415380082        0.0912377333        1.3929311444
 F         -0.9944498016        1.0728867547       -0.5132196520
 F         -1.0315075098       -1.0668827199       -0.4231254639
 O          1.5077684976       -1.2182676794       -0.3686526494
 H          1.3122481942        2.1087532267        0.0797009760
 H          1.3433761135        1.2882705205       -1.4860505976
 H          2.7245750563        1.1488424453       -0.3874719250
 H          1.3199192272       -1.2308085867       -1.3161079829
  12
  -27.2405024600000       2.027725447029830E-003 !mtd4
 C          1.8009865385       -0.8338238858        0.6527349988
 C          0.9569667594       -0.1633658828       -0.4289163451
 H          0.9776410273       -0.7563834586       -1.3505106159
 C         -0.5332297604       -0.0750184854        0.0075767878
 F         -0.7463771076       -0.5031529164        1.2630577013
 F         -0.9909444774        1.1813162946       -0.0373758337
 F         -1.3298691047       -0.8130528104       -0.7771299928
 O          1.4373460684        1.0952333198       -0.7923837246
 H          1.4368952350       -1.8371106431        0.8540311047
 H          1.7688646672       -0.2576824574        1.5758079939
 H          2.8296934098       -0.8904203035        0.3076723454
 H          1.4737461242        1.6758172724       -0.0211851964
  12
  -27.2404488000000       1.915793620886113E-003 !gc
 C          1.4404970536       -0.5619346455       -1.3844021505
 C          0.9829505047        0.3257607921       -0.2154121362
 H          1.1169047373        1.3888947834       -0.4396333708
 C         -0.5175202487        0.1117369669        0.0437063190
 F         -0.9930000101        0.9107507508        1.0026568664
 F         -1.2618382470        0.3282935818       -1.0495230761
 F         -0.7646888450       -1.1518199871        0.4370359808
 O          1.6908441296        0.1017210674        0.9685903886
 H          2.2020537945       -1.2539592663       -1.0323018373
 H          1.8684198833        0.0379857672       -2.1805370778
 H          0.6133255356       -1.1374237798       -1.7923344962
 H          1.5627241811       -0.8114550464        1.2588224136
  12
  -27.2394032000000       6.336132249229187E-004 !gc
 C          1.8406126515        0.1254176517        0.9667705113
 C          0.9710582448       -0.3487953414       -0.2011259955
 H          1.0558865306       -1.4384345338       -0.3462420480
 C         -0.5145037297       -0.0895887302        0.0934859285
 F         -0.9520601565       -0.8173167042        1.1302671658
 F         -0.7878448185        1.1877518851        0.3675082854
 F         -1.2772221372       -0.4278804921       -0.9648122319
 O          1.3530252366        0.3402308897       -1.3580903812
 H          2.5251813598        0.8779752007        0.5854722017
 H          2.4121007510       -0.6956769345        1.3857342877
 H          1.2365237664        0.5719048551        1.7516692425
 H          0.7886833458        0.0957986031       -2.1025320354
  12
  -27.2394015000000       6.324744229234768E-004 !gc
 C          1.7076842479       -1.1891906162        0.0918865404
 C          0.9267855380       -0.0103394503       -0.4959204727
 H          0.8690513641       -0.0775366359       -1.5949354022
 C         -0.5294817356       -0.0313209597       -0.0070051181
 F         -0.6442291387       -0.0242814191        1.3228243385
 F         -1.1997514662        1.0480447537       -0.4564388859
 F         -1.1910536397       -1.1075436326       -0.4538924171
 O          1.5431521375        1.1827122246       -0.1006368444
 H          1.0926076939       -1.7671625256        0.7759514064
 H          2.5521901033       -0.7848626906        0.6428129024
 H          2.0741482562       -1.8436332551       -0.6915135404
 H          1.0400160888        1.9459179195       -0.4117959936
  12
  -27.2385591000000       2.593598415998518E-004 !gc
 C          1.6001202493        0.9855959293       -0.9203206971
 C          1.0337078991        0.1197536373        0.1988089077
 H          1.2792471548        0.5630710983        1.1788150690
 C         -0.5170873783        0.0620699276        0.1326498622
 F         -1.0671913865        0.4213261427        1.3086363956
 F         -1.0532543962        0.8662588205       -0.7898154971
 F         -0.9619353445       -1.1744710068       -0.1231957166
 O          1.5838246349       -1.1592914873        0.0762582209
 H          1.2243688447        2.0015177834       -0.8474654761
 H          1.3269484105        0.5642086435       -1.8838186661
 H          2.6824393823        0.9894120590       -0.8367028163
 H          1.2217837408       -1.7597330613        0.7386999899
  12
  -27.2371636600000       5.923834416164563E-005 !mtd5
 C          1.6642550098       -1.2418775782        0.0463405726
 C          0.9289468977       -0.0050255016       -0.4940290736
 H          0.8761891748       -0.0270511871       -1.5944732877
 C         -0.5252906265       -0.0019723689       -0.0111526961
 F         -0.6312681549        0.0204886266        1.3182855196
 F         -1.2158015651        1.0375275331       -0.4841580075
 F         -1.1679105820       -1.1081023641       -0.4284285617
 O          1.4728252752        1.2095490412       -0.0501749812
 H          1.9905978418       -1.8865139868       -0.7639230319
 H          1.0241270214       -1.8177354596        0.7093518831
 H          2.5321061347       -0.9228047187        0.6187076474
 H          2.3851936044        1.2804986742       -0.3524588515
  12
  -27.2368311700000       4.166784944060167E-005 !gc
 C          1.5674649983       -1.1926269974       -0.7052219401
 C          0.9490331423        0.1767893484       -0.4339929488
 H          0.9421396063        0.7743846635       -1.3617888525
 C         -0.5293689793        0.0511896110        0.0052411106
 F         -0.7614073916        0.5443642774        1.2164739670
 F         -1.3411627682        0.7038300977       -0.8444222975
 F         -0.9643547307       -1.2185492586        0.0193601945
 O          1.6044781070        0.8729163585        0.5918739581
 H          2.5911901191       -1.0654549228       -1.0506515214
 H          1.0038849421       -1.7206469336       -1.4690126065
 H          1.5711252071       -1.7867056549        0.2057746088
 H          2.5518153581        0.8785298204        0.4157633881
