  19
        -26.27981138
 C         -2.8749520338       -0.6299451266       -0.8024167775
 C         -2.4286123846        0.0643131230        0.4815600756
 O         -1.3110325250        0.9053503446        0.2864031065
 C         -0.0669030251        0.3658064197        0.1523340421
 C          0.2564020586       -0.9786344990        0.2996335869
 C          1.5712487176       -1.3917583949        0.1573057790
 C          2.5730127079       -0.4854346652       -0.1327050486
 C          2.2534442946        0.8557770363       -0.2784319770
 C          0.9489503076        1.2790853790       -0.1378345283
 H         -2.0930929180       -1.2824508706       -1.1834334243
 H         -3.7662721768       -1.2207653406       -0.6093147788
 H         -3.1007002137        0.1136341917       -1.5626102895
 H         -2.2302117492       -0.6689398716        1.2733170584
 H         -3.2163259367        0.7386029283        0.8301134983
 H         -0.4981366115       -1.7149644885        0.5289723443
 H          1.8074225584       -2.4394913680        0.2752211221
 H          3.5936188410       -0.8185558129       -0.2442175812
 H          3.0266855593        1.5754036138       -0.5036172458
 H          0.6828739122        2.3189310515       -0.2457974910
