  17
        -39.50107073
 C         -0.0000861016        0.8997497300        0.0008501886
 C         -0.8121891288        0.0352491522        0.9649506746
 O         -1.8025578694       -0.7216702179        0.2906297570
 N         -2.9976034440       -0.0639063493       -0.0152529979
 O         -3.0874677708        1.0673219881        0.3268198163
 O         -3.7684957789       -0.7475079181       -0.5881096227
 C          0.8114921375        0.0350601000       -0.9635237398
 O          1.8023308305       -0.7215781817       -0.2896416061
 N          2.9978289781       -0.0638662619        0.0145760315
 O          3.0874560657        1.0672113581       -0.3280219428
 O          3.7692503053       -0.7473139585        0.5869012954
 H         -0.6655352004        1.5426122721       -0.5758114065
 H          0.6657321773        1.5420670730        0.5777035339
 H         -0.1792971413       -0.7169190068        1.4391469573
 H         -1.2843931771        0.6603863824        1.7296098101
 H          1.2831617422        0.6600402858       -1.7286442241
 H          0.1783418508       -0.7172544218       -1.4371554496
