! r2scan-3c def2/J RI DEFGRID2 scfconv6 printgap
%output
    printlevel normal
end
%cpcm
    smd true
    smdsolvent "water"
end
* xyz 0 1
C -2.776157315 0.0040233411 -0.0019744987
C -1.3613763542 0.3978759627 -0.4102100108
C -0.3174398088 -0.2494678335 0.5021038018
C 1.1098056276 -0.0116614535 0.0744138486
C 1.5595474476 1.1660775794 -0.3290641568
C 2.0039218972 -1.2121292178 0.1578249789
H -3.5068622611 0.4756714512 -0.6545261581
H -2.9772482604 0.3147731817 1.020983092
H -2.9062224864 -1.0742491528 -0.063905742
H -1.1764958182 0.0868814247 -1.4407740181
H -1.2666526135 1.4836568271 -0.3700173773
H -0.4500380943 0.1324590913 1.51901853
H -0.5016812465 -1.3254716876 0.533576055
H 2.5864361227 1.3073919648 -0.6218066342
H 0.9310237015 2.0375668794 -0.385451065
H 1.9945966746 -1.6143239777 1.1700417338
H 1.6455166774 -1.9920258481 -0.5129931769
H 3.0261599496 -0.9610755079 -0.1118469849
*
