! r2scan-3c def2/J RI DEFGRID2 scfconv6 printgap
%output
    printlevel normal
end
%cpcm
    smd true
    smdsolvent "water"
end
* xyz 0 1
C -4.0258932578 -0.6238415521 -1.634110148
C -3.0254510256 -1.5395570427 -0.9379803608
C -2.4573261984 -1.0310261513 0.3971797978
H -1.9736352251 -1.8907482258 0.8767196748
C -3.5044162662 -0.4846222248 1.3573783301
N -1.3339744932 -0.0918610788 0.1837561367
C -0.0611343532 -0.6674672964 0.2320050569
O 0.0862007042 -1.8657086017 0.4089414576
C 1.044129979 0.2495529214 0.0682649713
C 0.8670458529 1.5780590241 -0.1404095931
N -0.4200296859 2.0185285546 -0.1999829339
C -1.5481188015 1.2412845898 -0.0719453367
O -2.6410954749 1.7616882617 -0.1888716402
C 1.9318048043 2.5939502491 -0.3223622176
Br 2.7647560537 -0.5545074822 0.1623829041
H -4.2786522877 -1.0393990469 -2.6063299166
H -4.9381712389 -0.5400428668 -1.051228028
H -3.6220609603 0.3736253487 -1.7781726562
H -3.5094458483 -2.4968101713 -0.7363113332
H -2.1809376821 -1.7392564715 -1.6033066398
H -4.2405182944 -1.2621788941 1.5380295475
H -3.0396425737 -0.2182032897 2.3039807173
H -4.0003113162 0.3910874276 0.9534163118
H -0.5983297047 3.0025614938 -0.3775757406
H 1.9155290253 2.9624581372 -1.346660783
H 2.9107977038 2.1706419309 -0.1208306873
H 1.7595754082 3.4362851578 0.3433296096
*
