! pbe def2-sv(p) def2/J RI DEFGRID1 loosescf d4 GCP(DFT/SV(P)) printgap
%output
    printlevel normal
end
* xyz 0 1
C -2.7473519572 -0.0060691479 0.0160054251
C -1.3152883194 -0.0703743394 -0.5003073648
C -0.2989493255 0.140314536 0.628679094
C 1.1142296862 0.1015804378 0.1142144718
C 1.7804930461 1.2074896692 -0.1777765537
C 1.7075490999 -1.2625929387 -0.0620144102
H -2.9460009197 0.9623794301 0.4696824757
H -2.9173143588 -0.7762418835 0.7651476578
H -3.4528255139 -0.1557070606 -0.7977395588
H -1.1440615794 -1.0406762197 -0.9703405484
H -1.1635536672 0.6982616284 -1.2612971347
H -0.4934741818 1.1069056097 1.0973330682
H -0.4386591207 -0.6388275001 1.3811131552
H 2.7854963765 1.1836975223 -0.5645473667
H 1.348241129 2.1845706028 -0.0404689635
H 1.0731611482 -1.8723086262 -0.7029164866
H 2.6987960596 -1.2042529462 -0.5029268167
H 1.7820189499 -1.762804461 0.9029157186
*
