! pbe def2-sv(p) def2/J RI DEFGRID1 loosescf d4 GCP(DFT/SV(P)) printgap
%output
    printlevel normal
end
* xyz 0 1
C 3.1392292987 0.3158138023 1.0335020046
C 1.930663978 -0.3576759667 0.4471722351
C 1.4388329188 -1.4561367868 0.9964758947
C 1.3866856159 0.3082260304 -0.7972907309
H 2.2540559627 0.5442704774 -1.4250136793
C 0.4329186844 -0.5370431607 -1.649297179
C -0.9787632348 -0.7104323523 -1.0702047573
C -1.3557413356 0.3124627137 -0.04017283
C -0.6015434191 1.3876237022 0.2326827984
C 0.6922304143 1.6376102928 -0.4475594088
C -2.5960973983 0.0967747867 0.6790227291
O -3.3447137081 -0.8536116415 0.5338129278
H 3.9115712397 0.4370327841 0.2758373007
H 2.8881153739 1.3040476857 1.4144033
H 3.544345066 -0.2696806409 1.853955648
H 0.5850998056 -1.9815348964 0.6132344937
H 1.8861113579 -1.8838338101 1.8789999773
H 0.3504204695 -0.0441089221 -2.6195959415
H 0.8777148481 -1.5178662482 -1.8194198273
H -1.7148224303 -0.6577958799 -1.8777170742
H -1.1133152488 -1.6974081942 -0.6199256529
H -0.9317592037 2.0999087454 0.9758642103
H 0.4983169848 2.184361641 -1.3751446161
H 1.3318795027 2.2661280292 0.1705026093
H -2.8447119363 0.882942075 1.4171175098
*
