! r2scan-3c def2/J RI DEFGRID2 scfconv6 printgap
%output
    printlevel normal
end
%cpcm
    smd true
    smdsolvent "water"
end
* xyz 0 1
C 3.4147669863 1.1933712048 -0.2622886213
C 1.9564933415 0.8919344389 -0.5883028254
C 1.2948212165 -0.052808468 0.4274472116
H 1.4849660497 0.344439439 1.4309899656
C 1.8698089379 -1.4696043363 0.3581495157
C -0.1990085241 -0.0804779121 0.2115456566
C -1.0623946675 0.3716711915 1.201356958
C -2.4337640663 0.3531296168 1.0139813652
C -2.9651176025 -0.1197195356 -0.1730299954
C -2.1152129205 -0.5723614666 -1.1681871058
C -0.745612467 -0.5524015682 -0.9765763874
H 3.8111684669 1.9228030682 -0.964578125
H 3.5045560487 1.6012067508 0.7422091177
H 4.0237012914 0.2958079733 -0.3265916664
H 1.3939042639 1.8291785634 -0.6005291455
H 1.8911220735 0.4559188669 -1.5866661176
H 1.7898798744 -1.870553988 -0.6490391128
H 2.9160844879 -1.4735879789 0.6505931625
H 1.3235675618 -2.125434888 1.0327739808
H -0.6565421051 0.742902241 2.1319974098
H -3.0880646845 0.7084826766 1.7965298221
H -4.0344433346 -0.1357177839 -0.322306833
H -2.5218655163 -0.9426531577 -2.0978984354
H -0.0973115841 -0.9086882474 -1.7629670236
*
