! r2scan-3c def2/J RI DEFGRID2 scfconv6 printgap
%output
    printlevel normal
end
%cpcm
    smd true
    smdsolvent "water"
end
* xyz 0 1
C 1.6052063063 0.6415172488 1.2656541539
C 1.2021017077 0.3925028678 -0.1861521706
H 0.9305044202 1.3502011074 -0.6571371028
C 0.03398698 -0.5906000286 -0.3159536848
C -1.2834858319 -0.1646539027 0.337816596
C -1.8193291529 1.1407974359 -0.2462779583
C -2.3149252792 -1.2777730028 0.1534753639
O 2.2728418569 -0.1846008644 -0.9243031382
H 0.7953832198 1.1240559011 1.8033691634
H 1.8439310925 -0.3017388068 1.751073063
H 2.478582118 1.2889183296 1.3102439765
H -0.1298667512 -0.7580854601 -1.3831962172
H 0.3607614006 -1.5404861539 0.1134519865
H -1.1199732146 -0.0284999266 1.4114185943
H -2.7992724532 1.362032682 0.1702306703
H -1.9156930757 1.0592603773 -1.3266236952
H -1.1599224836 1.9741646229 -0.0195588425
H -1.9526653361 -2.2113978695 0.576811399
H -3.2489397192 -1.0168068747 0.6451490814
H -2.5151856644 -1.4357509948 -0.9039013854
H 3.0564045985 0.3747878464 -0.8378394297
*
