! r2scan-3c def2/J RI DEFGRID2 scfconv6 printgap
%output
    printlevel normal
end
%cpcm
    smd true
    smdsolvent "water"
end
* xyz 0 1
C -2.2527343035 -0.2196631795 0.1098046569
O -0.9113480698 -0.2696911129 -0.3234162552
C -0.0949506387 0.7225538705 0.2714010448
C 1.3263112992 0.5427608255 -0.2591748228
O 1.9154618981 -0.6548109545 0.1876304252
H -2.7085055895 0.7434971245 -0.1430619828
H -2.319672823 -0.3740583065 1.1921492565
H -2.7704709274 -1.0214227125 -0.4102971942
H -0.4655806604 1.7242070334 0.0139763572
H -0.1037286713 0.6097760676 1.364836086
H 1.9609888862 1.3502962968 0.108978984
H 1.301131637 0.5709969313 -1.3558335789
H 1.3379831013 -1.3884412973 -0.0695045082
*
