! r2scan-3c def2/J RI DEFGRID2 scfconv6 printgap
%output
    printlevel normal
end
%cpcm
    smd true
    smdsolvent "water"
end
* xyz 0 1
C 1.9156813827 -1.0546604484 0.2896629801
C 1.260251894 0.1900482296 0.8819468571
C 0.1799724429 0.8485670263 0.0037244114
H -0.0403037037 1.8285148411 0.4670934263
C -1.1813772087 0.1316252475 -0.114986788
C -1.1173980079 -1.2115619983 -0.8378300173
C -1.8629240671 -0.0153088984 1.2424394883
O 0.6483461292 1.0701659218 -1.3171443276
H 2.0799898389 -0.9222033937 -0.7768207415
H 1.3018036818 -1.9374673316 0.4334715933
H 2.8757519313 -1.2304011313 0.7693797051
H 0.8288597312 -0.0347081575 1.8565650285
H 2.0370635452 0.9440705997 1.0399856674
H -1.7869478979 0.8041347364 -0.7352071433
H -2.1172094521 -1.5063578534 -1.1482245929
H -0.4910719508 -1.1289293054 -1.7213774601
H -0.7225457782 -1.9879970377 -0.1900865768
H -2.8810397847 -0.3695648777 1.1036555196
H -1.8974179103 0.938088252 1.7647057423
H -1.3362977828 -0.7348183755 1.8641395753
H 1.4600485749 1.5929239341 -1.2766187162
*
