  26
        -39.32012619
 C          1.5410242290        0.4844811711        1.6673645115
 C          1.8992985779        0.6727731651        0.2038264639
 C          2.9640261220        1.7563800325        0.0473524855
 C          0.7774058621        0.9202485880       -0.7448914159
 N         -0.4604196590        0.6635850016       -0.7110499365
 O         -0.9925950750        0.0908040628        0.4539838112
 C         -2.3505958307       -0.1179727518        0.4382201348
 O         -2.8520067631       -0.6446368609        1.3950448170
 N         -2.9799976976        0.2976508277       -0.6711034671
 C         -4.4013856599        0.1570808739       -0.8511658130
 S          2.6720285940       -0.8747111371       -0.5122428356
 C          1.4076165329       -2.1419300672       -0.2295919127
 H          2.4410379512        0.2506936829        2.2328947082
 H          1.1137011588        1.4074926849        2.0562633413
 H          0.8133048361       -0.3068080128        1.8147963572
 H          3.8326480062        1.5109038327        0.6531266831
 H          2.5676224815        2.7160111488        0.3739706479
 H          3.2837011172        1.8395209122       -0.9890358645
 H          1.0753870267        1.3396728817       -1.6997209784
 H         -2.4170460403        0.7214169709       -1.3950375803
 H         -4.6192674969       -0.4641331456       -1.7219482596
 H         -4.8708532651        1.1339167032       -0.9810115600
 H         -4.8013334214       -0.3199086226        0.0420996806
 H          1.7772983903       -3.0378815815       -0.7185202942
 H          0.4678657589       -1.8392379991       -0.6807677837
 H          1.2866135468       -2.3237044766        0.8336559045
