! r2scan-3c def2/J RI DEFGRID2 scfconv6 printgap
%output
    printlevel normal
end
%cpcm
    smd true
    smdsolvent "water"
end
* xyz 0 1
C 2.4754199414 0.8218140755 0.2860943881
C 1.5326219117 0.0051169966 -0.591130916
C 0.3900129514 -0.6390319047 0.2128779104
C -1.0081168518 -0.2752849901 -0.3018941342
C -1.3358794919 1.1884669532 -0.0148509719
C -2.0591313104 -1.1784844546 0.3415877784
H 2.9290424829 0.1917507445 1.0479537834
H 3.2702024081 1.2609223 -0.3128240543
H 1.9347557277 1.6252463965 0.7811520008
H 1.1191174798 0.6543219951 -1.3649123532
H 2.1078475563 -0.7698099494 -1.1011417301
H 0.496294394 -1.7251969272 0.1894375095
H 0.461172158 -0.3318689473 1.2583285496
H -1.0317074547 -0.4362800814 -1.3859933103
H -1.3532381889 1.3647542179 1.0586821726
H -2.3113813339 1.4469132952 -0.4204808746
H -0.5968082171 1.850040964 -0.4587711318
H -3.0536380984 -0.9207796077 -0.015052538
H -1.8688341086 -2.222213657 0.1023137835
H -2.0423723836 -1.0653964128 1.4235026727
*
