! r2scan-3c def2/J RI DEFGRID2 scfconv6 printgap
%output
    printlevel normal
end
%cpcm
    smd true
    smdsolvent "water"
end
* xyz 0 1
C -1.4344394718 0.0154961097 0.6500207907
C 0.0687961201 0.3069549462 0.5163770188
C 0.8538688966 -0.9092896381 -0.0054146559
O 2.2413942612 -0.6659245831 -0.0008242998
O 0.2845973936 1.4151804491 -0.3337821889
O -2.0372264101 -0.1953325304 -0.6085202007
H -1.9248449878 0.8980235447 1.0680579224
H -1.5933780818 -0.8317429861 1.3226137542
H 0.4722692384 0.5890723363 1.4946000552
H 0.5264824762 -1.1518409579 -1.0261683962
H 0.6928722686 -1.7723405431 0.6433436338
H 2.3925994092 0.2049004772 -0.3998866354
H -0.360276011 1.3614382169 -1.0575459248
H -1.8657080364 -1.0972989282 -0.9088327914
*
