  17
  -25.2427083000000       0.267752557448287      !md2
 C         -1.0884684352       -1.8882858759       -0.0002605895
 C         -0.0102698813       -0.8583408651       -0.0001469182
 C          1.3244938357       -1.2458908484        0.0001236917
 C          2.3476694126       -0.3157198622        0.0002336010
 C          2.0556389961        1.0402888287        0.0000623777
 C          0.7386600167        1.4474552482       -0.0001193258
 C         -0.3047062117        0.5170599619       -0.0002153565
 C         -1.6755921412        1.0312505061       -0.0002094187
 O         -2.6976551108        0.3907945000        0.0005079560
 H         -1.7281652454       -1.7675639446        0.8726180145
 H         -1.7283961845       -1.7670926393       -0.8729134810
 H         -0.6662475793       -2.8904228019       -0.0005750144
 H          1.5643183515       -2.2996645499        0.0002759022
 H          3.3757036462       -0.6470001742        0.0004285617
 H          2.8520306488        1.7690693240       -0.0000510215
 H          0.4988223790        2.5016167230       -0.0004453821
 H         -1.7129669020        2.1411526847       -0.0010618377
  17
  -25.2427082700000       0.267744057552257      !mtd7
 C         -1.0885172794       -1.8882225190       -0.0002482265
 C         -0.0102744140       -0.8583278918        0.0000463693
 C          1.3244949391       -1.2458908046        0.0000396912
 C          2.3476617060       -0.3157255977        0.0000420956
 C          2.0556249914        1.0402862590        0.0001011116
 C          0.7386609133        1.4474770899       -0.0000295513
 C         -0.3046912929        0.5170580077       -0.0000734980
 C         -1.6755815900        1.0312164000       -0.0004022123
 O         -2.6976025118        0.3907436659        0.0004534698
 H         -1.7285570988       -1.7669608439       -0.8727986665
 H         -0.6663318094       -2.8903698573       -0.0007201322
 H         -1.7281269170       -1.7675694279        0.8727053744
 H          1.5642858081       -2.2996697830       -0.0000863708
 H          3.3757166322       -0.6469536481        0.0002851385
 H          2.8520381686        1.7690407811        0.0004151163
 H          0.4988012301        2.5016355520       -0.0000665999
 H         -1.7129943954        2.1411070647       -0.0006851771
  17
  -25.2427082500000       0.267738391104140      !gc
 C         -1.0884750825       -1.8882612816       -0.0008919944
 C         -0.0102638698       -0.8583286777       -0.0001824999
 C          1.3245024054       -1.2458938313        0.0004833193
 C          2.3476730221       -0.3157304336        0.0005998268
 C          2.0556379422        1.0402769090       -0.0000574494
 C          0.7386680218        1.4474693268       -0.0005251245
 C         -0.3046860114        0.5170607132       -0.0004273604
 C         -1.6755984123        1.0312461590       -0.0002908182
 O         -2.6976749222        0.3907705234        0.0011340337
 H         -0.6662716090       -2.8904371088       -0.0033058038
 H         -1.7271977161       -1.7689197799        0.8729107982
 H         -1.7294379939       -1.7656022832       -0.8725341551
 H          1.5643012296       -2.2996740168        0.0006324279
 H          3.3757221992       -0.6469724595        0.0013666907
 H          2.8520466916        1.7690363815        0.0001684527
 H          0.4988162854        2.5016277736       -0.0007313890
 H         -1.7129518771        2.1411570440       -0.0011108884
  17
  -25.2413790100000       6.558948805675562E-002 !gc
 C         -0.8214264393       -2.2877081301        0.0002113667
 C          0.0714869713       -1.0842340628        0.0000276141
 C          1.4496824949       -1.2533391880       -0.0003971521
 C          2.3126095472       -0.1704888864       -0.0003505453
 C          1.8098395034        1.1211424660        0.0001969646
 C          0.4443205519        1.3118004647        0.0004188906
 C         -0.4345850270        0.2256649285        0.0002960472
 C         -1.8730882815        0.5166893718        0.0002216256
 O         -2.3508237213        1.6248985630       -0.0005950359
 H         -1.4605991152       -2.2969925236       -0.8814739066
 H         -0.2264353598       -3.1978419521       -0.0002303337
 H         -1.4595862221       -2.2971952304        0.8826406617
 H          1.8572541411       -2.2543945207       -0.0007591717
 H          3.3798581951       -0.3367821884       -0.0007128125
 H          2.4796546224        1.9676322841        0.0004448895
 H          0.0180140992        2.3041701106        0.0006767306
 H         -2.5312599123       -0.3712831800        0.0014137508
  17
  -25.2413789900000       6.558809994241800E-002 !gc
 C         -0.8214297705       -2.2877191961        0.0001240989
 C          0.0715002862       -1.0842595964        0.0000981890
 C          1.4496924833       -1.2533458589       -0.0002865038
 C          2.3125975390       -0.1704783230       -0.0003320756
 C          1.8098226397        1.1211510331        0.0000055943
 C          0.4443051351        1.3117942252        0.0003027444
 C         -0.4345864242        0.2256363747        0.0003795386
 C         -1.8730980204        0.5167048226        0.0007230600
 O         -2.3507876508        1.6249265861       -0.0009881228
 H         -1.4589470895       -2.2977970242        0.8830310176
 H         -1.4613155434       -2.2963504491       -0.8810356295
 H         -0.2264618181       -3.1978565472       -0.0013604165
 H          1.8572909638       -2.2543903985       -0.0006688901
 H          3.3798485244       -0.3367592321       -0.0005619436
 H          2.4796335428        1.9676461997        0.0002391172
 H          0.0179676685        2.3041498713        0.0005952788
 H         -2.5312658972       -0.3712562833        0.0033555339
  17
  -25.2413789800000       6.558740589614255E-002 !mtd9
 C         -0.8214493664       -2.2877300661       -0.0006663237
 C          0.0714685513       -1.0842133924       -0.0001910361
 C          1.4496670725       -1.2533663921        0.0001585498
 C          2.3125476768       -0.1704924987        0.0003975503
 C          1.8098222267        1.1211662522        0.0000351554
 C          0.4443235723        1.3118625455       -0.0003990261
 C         -0.4345138029        0.2256565992       -0.0003385838
 C         -1.8731350087        0.5166313971        0.0006863861
 O         -2.3507435598        1.6249237782        0.0001258362
 H         -0.2262871975       -3.1977007601       -0.0008979190
 H         -1.4602117029       -2.2974734070        0.8813012526
 H         -1.4599624306       -2.2969098602       -0.8827982928
 H          1.8572896389       -2.2543958131        0.0003612998
 H          3.3798070867       -0.3367746343        0.0009040079
 H          2.4797568174        1.9675584905        0.0002000978
 H          0.0177085748        2.3040836896       -0.0004781806
 H         -2.5311810418       -0.3713259849        0.0031917664
