! pbe def2-sv(p) def2/J RI DEFGRID1 loosescf d4 GCP(DFT/SV(P)) printgap
%output
    printlevel normal
end
* xyz 0 1
C -1.3475476502 -0.4402141281 -0.3110103485
C 0.0310301183 -0.0126397828 0.2263563375
C 1.1446689868 -0.7230430847 -0.5573628938
O 2.3487180956 -0.6144650996 0.1678512082
O 0.1771153488 1.3865107533 0.2193140798
O -2.4040745148 0.3065859084 0.2385365748
H -1.4905371952 -1.5127515521 -0.1249584275
H -1.396954928 -0.2623159253 -1.3887354317
H 0.1293633714 -0.2917944041 1.2813920905
H 1.2423046893 -0.2568391453 -1.5462666931
H 0.8668640967 -1.7772718037 -0.6858731214
H 3.0701271608 -1.0087996363 -0.3416304723
H 0.0442978015 1.7204175333 -0.6794799383
H -2.3504214555 0.279970912 1.2039079825
*
