  19
  -24.3278638300000       8.161625091959927E-002 !mtd14
 C         -2.4460565372       -1.1073193184        0.5032781375
 C         -1.7168333669        0.0919520835       -0.0302392670
 C         -2.3706344543        1.1477969764       -0.5029683134
 C         -0.2448375786        0.0380003318       -0.0180458630
 C          0.5041111213        1.1829052261        0.2503997303
 C          1.8853281225        1.1403705147        0.2641543820
 C          2.5485620783       -0.0481129873        0.0086096583
 C          1.8175284033       -1.1936945669       -0.2550342932
 C          0.4355111037       -1.1534229428       -0.2625467237
 H         -1.9837864899       -1.4579877157        1.4243592101
 H         -3.4876120093       -0.8645250068        0.6977673085
 H         -2.4188124819       -1.9223980842       -0.2196598893
 H         -1.8606586143        1.9971873814       -0.9235532859
 H         -3.4469186383        1.1895750569       -0.5074196290
 H         -0.0055293195        2.1094881485        0.4696838169
 H          2.4479052077        2.0375431426        0.4791730313
 H          3.6280906644       -0.0819323498        0.0186696581
 H          2.3271167332       -2.1254879181       -0.4548068990
 H         -0.1176303268       -2.0549789096       -0.4790273461
  19
  -24.3278637900000       8.161279635690462E-002 !mtd3
 C         -2.4023551370        1.1918231172       -0.5181488124
 C         -1.7191736806       -0.0307955103        0.0233337612
 C         -2.4124772185       -1.0609029205        0.4963610108
 C         -0.2461214773       -0.0293221117        0.0178960065
 C          0.4751616482        1.1376240264        0.2629676704
 C          1.8577493111        1.1288469109        0.2604539450
 C          2.5486169075       -0.0424019711        0.0013301366
 C          1.8445730038       -1.2071488938       -0.2541677375
 C          0.4626583596       -1.2006827970       -0.2452736883
 H         -2.3490099563        2.0082564477        0.2018314276
 H         -1.9233533651        1.5219132236       -1.4382944559
 H         -3.4511021939        0.9859553265       -0.7167324630
 H         -1.9351449830       -1.9265182012        0.9221761793
 H         -3.4895623828       -1.0640590051        0.4957705825
 H         -0.0464459177        2.0586155420        0.4758479360
 H          2.3993771822        2.0423589833        0.4603102362
 H          3.6287000066       -0.0469389053       -0.0049887042
 H          2.3757572800       -2.1243213560       -0.4650156738
 H         -0.0788213356       -2.1091321213       -0.4642117264
  19
  -24.3278637800000       8.161193273930833E-002 !mtd12
 C         -2.4021778809        1.1928139811       -0.5161730181
 C         -1.7191337879       -0.0308787498        0.0230830286
 C         -2.4125570667       -1.0615447582        0.4948428583
 C         -0.2461119637       -0.0295168797        0.0175781644
 C          0.4750177190        1.1373525147        0.2637343812
 C          1.8575865054        1.1286681043        0.2614618269
 C          2.5485741259       -0.0424082239        0.0015851664
 C          1.8446929766       -1.2069968366       -0.2550885245
 C          0.4627472701       -1.2006037290       -0.2465492696
 H         -1.9207630706        1.5272233790       -1.4335246669
 H         -3.4499230710        0.9861992816       -0.7187821274
 H         -2.3524899984        2.0065618430        0.2071609551
 H         -1.9352503523       -1.9277986727        0.9193700173
 H         -3.4896513091       -1.0647182353        0.4942005944
 H         -0.0468000792        2.0580218295        0.4774306557
 H          2.3991465708        2.0419256128        0.4624654065
 H          3.6286660169       -0.0467933120       -0.0044660868
 H          2.3759036390       -2.1238191077       -0.4670760254
 H         -0.0785176708       -2.1088323988       -0.4667763271
  19
  -24.3278637700000       8.161106913054392E-002 !md2
 C         -2.4422417131       -1.0976699775       -0.5399367527
 C         -1.7170075257        0.0915913455        0.0206939007
 C         -2.3742781340        1.1384244988        0.5083741991
 C         -0.2449595780        0.0377760477        0.0176269795
 C          0.5056736640        1.1874179358       -0.2245706791
 C          1.8869456157        1.1449385508       -0.2305669674
 C          2.5485418438       -0.0482499753        0.0066825281
 C          1.8158535957       -1.1984358493        0.2444530968
 C          0.4338219630       -1.1580790750        0.2442462238
 H         -1.9732770968       -1.4314363800       -1.4639224879
 H         -2.4200736790       -1.9258333227        0.1681572199
 H         -3.4824324335       -0.8513551950       -0.7373829684
 H         -1.8674030243        1.9800241646        0.9479823004
 H         -3.4505919173        1.1796215349        0.5069038572
 H         -0.0026013136        2.1178959259       -0.4300590241
 H          2.4508606618        2.0458009717       -0.4257414494
 H          3.6281089975       -0.0820468710        0.0026557609
 H          2.3241824016       -2.1337666691        0.4304203347
 H         -0.1206853108       -2.0633419664        0.4408640482
  19
  -24.3278637700000       8.161106913054392E-002 !mtd7
 C         -2.4225911639        0.2627559977        1.2336836196
 C         -1.7180705787        0.0185541276       -0.0696088462
 C         -2.3929871222       -0.1611246831       -1.2000668861
 C         -0.2454848202        0.0006748312       -0.0386947544
 C          0.4688544070        0.8496446849        0.8045586542
 C          1.8512136280        0.8294097110        0.8236401633
 C          2.5485479877       -0.0469973962        0.0100868443
 C          1.8512433894       -0.9035852017       -0.8252354098
 C          0.4697544058       -0.8795134380       -0.8496145123
 H         -1.9637208940       -0.3183806594        2.0316409645
 H         -2.3642461325        1.3162045325        1.5067559827
 H         -3.4727485410       -0.0070392058        1.1555263917
 H         -1.8998239609       -0.2984478690       -2.1468532423
 H         -3.4698391146       -0.1540307927       -1.2217007824
 H         -0.0575845930        1.5463550938        1.4394479533
 H          2.3875217356        1.5008524380        1.4788941564
 H          3.6283223246       -0.0652206340        0.0295778310
 H          2.3873160988       -1.5965839590       -1.4577042644
 H         -0.0668298996       -1.5640419190       -1.4898212340
  19
  -24.3278637700000       8.161106913054392E-002 !gc
 C         -2.4420169826       -1.0969893598       -0.5415008839
 C         -1.7170355853        0.0915224670        0.0209563328
 C         -2.3743092869        1.1378727289        0.5096363431
 C         -0.2449698597        0.0377168775        0.0177750771
 C          0.5056113524        1.1872772732       -0.2249988519
 C          1.8868870184        1.1448090003       -0.2311580691
 C          2.5484945356       -0.0482779034        0.0065649304
 C          1.8158376209       -1.1983313151        0.2450580766
 C          0.4338018842       -1.1580060001        0.2449426402
 H         -2.4184790660       -1.9269216436        0.1644545628
 H         -3.4825588621       -0.8510005806       -0.7373220687
 H         -1.9738380283       -1.4281411371       -1.4667795117
 H         -1.8674545845        1.9787306331        0.9506936122
 H         -3.4505897988        1.1798034092        0.5066779593
 H         -0.0027622958        2.1177725713       -0.4301922449
 H          2.4507928755        2.0456853400       -0.4262850772
 H          3.6280612747       -0.0820898252        0.0023976239
 H          2.3241796284       -2.1336232495        0.4311543883
 H         -0.1206795189       -2.0632264828        0.4418242554
  19
  -24.3278637700000       8.161106913054392E-002 !mtd13
 C         -2.4023390408        1.1953780038       -0.5101342194
 C         -1.7191091579       -0.0310020960        0.0227688525
 C         -2.4127207441       -1.0640530443        0.4891950740
 C         -0.2461255727       -0.0295905008        0.0172889272
 C          0.4750395474        1.1366070052        0.2667374350
 C          1.8576128216        1.1279383961        0.2646766489
 C          2.5486895336       -0.0424003794        0.0017472352
 C          1.8448032759       -1.2062922729       -0.2582613156
 C          0.4628732679       -1.1999109321       -0.2500354626
 H         -3.4502519232        0.9898093582       -0.7130110592
 H         -2.3521250528        2.0055782292        0.2169985464
 H         -1.9217469779        1.5339981379       -1.4262695823
 H         -1.9356656838       -1.9325954769        0.9093073148
 H         -3.4897990186       -1.0671951621        0.4882226401
 H         -0.0467514982        2.0567934775        0.4827430635
 H          2.3990884207        2.0408123019        0.4679702701
 H          3.6287756895       -0.0467459070       -0.0042754854
 H          2.3760693816       -2.1224502958       -0.4727983828
 H         -0.0782979049       -2.1075170861       -0.4730285267
  19
  -24.3278637500000       8.160934194043087E-002 !mtd8
 C         -2.4461535067       -1.1071602650        0.5035345667
 C         -1.7168653448        0.0919799925       -0.0301155479
 C         -2.3704144860        1.1476660817       -0.5035658087
 C         -0.2448121561        0.0378901010       -0.0177482237
 C          0.5040675643        1.1828506447        0.2508651326
 C          1.8852564772        1.1404036886        0.2643029240
 C          2.5485270205       -0.0480417827        0.0083408696
 C          1.8175428111       -1.1936284500       -0.2553162930
 C          0.4354999341       -1.1534532216       -0.2625580048
 H         -3.4879680557       -0.8646401914        0.6974307133
 H         -2.4185200116       -1.9222531745       -0.2193395760
 H         -1.9839105269       -1.4578700660        1.4247316074
 H         -1.8602203314        1.9968874727       -0.9242970731
 H         -3.4466979014        1.1894402482       -0.5083480979
 H         -0.0057075236        2.1092191175        0.4705183296
 H          2.4479905187        2.0373967750        0.4795684074
 H          3.6280657618       -0.0817021295        0.0180988303
 H          2.3270763258       -2.1253797571       -0.4555245179
 H         -0.1175791293       -2.0549895995       -0.4792276638
  19
  -24.3278637300000       8.160761478717833E-002 !mtd5
 C         -2.4226989971        0.2611537865        1.2339796552
 C         -1.7180552166        0.0184744454       -0.0695688958
 C         -2.3926934257       -0.1589709686       -1.2005320250
 C         -0.2454685374        0.0002166243       -0.0385291066
 C          0.4687394635        0.8495270835        0.8045578406
 C          1.8510531496        0.8297505458        0.8233827971
 C          2.5485042462       -0.0467043572        0.0098764037
 C          1.8513303116       -0.9036806150       -0.8250515405
 C          0.4697582742       -0.8799385187       -0.8493336559
 H         -3.4718305885       -0.0127194152        1.1567154063
 H         -1.9610370218       -0.3173726101        2.0322246442
 H         -2.3681919710        1.3151542464        1.5058651645
 H         -1.8992773001       -0.2952970575       -2.1473383589
 H         -3.4695429115       -0.1515203301       -1.2224391569
 H         -0.0580252396        1.5459844381        1.4394684051
 H          2.3873178779        1.5014263949        1.4784221785
 H          3.6282907189       -0.0644844863        0.0291730747
 H          2.3874333914       -1.5968019792       -1.4573717748
 H         -0.0666404594       -1.5648141056       -1.4893443167
  19
  -24.3278637200000       8.160675122410603E-002 !mtd2
 C         -2.4234713391        0.2624585767        1.2334167799
 C         -1.7180696598        0.0182134232       -0.0694105416
 C         -2.3921586049       -0.1602112266       -1.2005292729
 C         -0.2454815943       -0.0000497490       -0.0379651074
 C          0.4688484270        0.8491392494        0.8050994608
 C          1.8512192715        0.8297337243        0.8233872338
 C          2.5485984793       -0.0461437281        0.0092814813
 C          1.8512982084       -0.9034437585       -0.8253046143
 C          0.4697630243       -0.8801545101       -0.8489480227
 H         -2.3626820135        1.3154377819        1.5079208805
 H         -3.4741519219       -0.0042841359        1.1535848079
 H         -1.9671215281       -0.3209663656        2.0312142095
 H         -1.8984050181       -0.2976220316       -2.1469505715
 H         -3.4689889885       -0.1517659145       -1.2230945430
 H         -0.0576396320        1.5454649229        1.4403187168
 H          2.3875118754        1.5016750290        1.4781168465
 H          3.6284053998       -0.0632975151        0.0276957170
 H          2.3874059543       -1.5963393190       -1.4578388223
 H         -0.0667545631       -1.5653388412       -1.4885226185
  19
  -24.3278637100000       8.160588767017188E-002 !mtd1
 C         -2.4459029018       -1.1078412848        0.5022380775
 C         -1.7168070861        0.0920635903       -0.0300351313
 C         -2.3707475162        1.1479860570       -0.5024357365
 C         -0.2448331538        0.0382251232       -0.0177413188
 C          0.5042597685        1.1831329663        0.2502278910
 C          1.8854802164        1.1404462845        0.2636863437
 C          2.5485484002       -0.0481756728        0.0083532945
 C          1.8173475710       -1.1938192442       -0.2546134912
 C          0.4353478972       -1.1534005662       -0.2618307519
 H         -2.4227347380       -1.9204914580       -0.2236416862
 H         -1.9808381409       -1.4624406351        1.4204018820
 H         -3.4863557486       -0.8640724841        0.7013715234
 H         -1.8609029105        1.9976294588       -0.9226726226
 H         -3.4470349480        1.1894877738       -0.5070692264
 H         -0.0052151526        2.1098800701        0.4691867938
 H          2.4482282127        2.0376521124        0.4781462290
 H          3.6280749776       -0.0820661987        0.0180832740
 H          2.3267822812       -2.1257954093       -0.4538831297
 H         -0.1180095584       -2.0549909172       -0.4776177128
  19
  -24.3278636800000       8.160329706350401E-002 !md8
 C         -2.4425126516       -1.0987848030       -0.5373034026
 C         -1.7169619026        0.0916138667        0.0205291887
 C         -2.3742846143        1.1394294369        0.5061407844
 C         -0.2449528485        0.0377994069        0.0173104808
 C          0.5058135716        1.1876084221       -0.2238973916
 C          1.8870780135        1.1451807051       -0.2294962324
 C          2.5486094637       -0.0481966501        0.0069605422
 C          1.8158468180       -1.1985923394        0.2434570481
 C          0.4338166628       -1.1582554818        0.2429965727
 H         -3.4825918362       -0.8524110629       -0.7359114313
 H         -1.9734373568       -1.4354859196       -1.4601427204
 H         -2.4213221332       -1.9249543747        0.1733242833
 H         -1.8675312000        1.9821103836        0.9438142934
 H         -3.4505906202        1.1805744281        0.5045309715
 H         -0.0023566649        2.1183917508       -0.4281842487
 H          2.4510403031        2.0463742739       -0.4230074405
 H          3.6281757654       -0.0820142681        0.0031332660
 H          2.3241652364       -2.1342295222        0.4279301375
 H         -0.1206890373       -2.0638548342        0.4380243907
  19
  -24.3259118100000       1.034404406168339E-002 !mtd11
 C         -2.3790606595       -0.4065061975       -1.2005203603
 C         -1.7256531463        0.0617098385        0.0647198500
 C         -2.3988332446        0.4796141114        1.1239253068
 C         -0.2426319337        0.0245785537        0.0501404878
 C          0.4853270850        1.1289839766       -0.3751969318
 C          1.8679840474        1.0881509867       -0.4029382944
 C          2.5373719780       -0.0575396193       -0.0078399777
 C          1.8186426525       -1.1620701687        0.4169551367
 C          0.4361065650       -1.1220646520        0.4445082035
 H         -2.0845858748       -1.4339073174       -1.4137995450
 H         -3.4621542532       -0.3556130598       -1.1232648701
 H         -2.0520824127        0.2091855528       -2.0382700949
 H         -1.8965603261        0.8095235762        2.0176521907
 H         -3.4757561551        0.5077047111        1.1387758753
 H         -0.0387992477        2.0236337535       -0.6804510750
 H          2.4247885920        1.9530064377       -0.7338767178
 H          3.6168882945       -0.0892167213       -0.0298703185
 H          2.3369580112       -2.0575714874        0.7282845391
 H         -0.1265415642       -1.9821292920        0.7792367894
  19
  -24.3259112400000       1.033780671493761E-002 !mtd5
 C         -2.3807033221       -0.4022221118       -1.2013186688
 C         -1.7256032497        0.0611962618        0.0647606855
 C         -2.3973948526        0.4761985477        1.1259757208
 C         -0.2425605006        0.0235560127        0.0493916749
 C          0.4848977755        1.1284587616       -0.3756548017
 C          1.8675504665        1.0885265857       -0.4028053227
 C          2.5374200723       -0.0567622522       -0.0072758576
 C          1.8192431015       -1.1618805279        0.4167651658
 C          0.4365619407       -1.1227920417        0.4436438877
 H         -2.0530936563        0.2149668793       -2.0377217876
 H         -2.0885569043       -1.4296665252       -1.4175307673
 H         -3.4636237182       -0.3493832253       -1.1231546229
 H         -1.8939134683        0.8029831307        2.0202102654
 H         -3.4743012672        0.5042477045        1.1424789754
 H         -0.0397205148        2.0227958156       -0.6809255661
 H          2.4240672300        1.9537773782       -0.7331568798
 H          3.6169658717       -0.0876517565       -0.0283465498
 H          2.3379873803       -2.0571336447        0.7280826714
 H         -0.1255397998       -1.9834365019        0.7777097475
