! pbe def2-sv(p) def2/J RI DEFGRID1 loosescf d4 GCP(DFT/SV(P)) printgap
%output
    printlevel normal
end
* xyz 0 1
C 2.5511284574 -0.3819049844 -0.5681365801
C 1.2826103525 -0.0845187813 0.2340398712
H 1.2407835103 -0.7643535577 1.1024472748
C 0.0334890618 -0.3045446038 -0.627635808
C -1.2687095696 -0.4698642838 0.1654593327
C -1.7496094906 0.8581044508 0.7441334812
C -2.3510914618 -1.0714441135 -0.7304419505
O 1.2838865613 1.2561538171 0.6994059604
H 2.5516549261 -1.4165647288 -0.8975520893
H 2.5966588017 0.2678653436 -1.4388544517
H 3.4369085143 -0.2137587125 0.0408723499
H -0.0611473373 0.5432461681 -1.3083392291
H 0.1951615855 -1.2052225703 -1.2217536309
H -1.0800155601 -1.1639305867 0.9931479538
H -2.0206557981 1.5399541303 -0.0591267437
H -0.964787788 1.3238311276 1.3324104806
H -2.6210434831 0.7051771195 1.3768285545
H -2.5344632264 -0.4244370406 -1.5853729212
H -2.0509814076 -2.0504534488 -1.0967430752
H -3.2809761162 -1.1814724915 -0.1777982656
H 2.1137895417 1.4291025845 1.1633802936
*
