  15
  -22.9019803400000       0.156834595338013      !mtd9
 C         -2.6462747323       -0.1171863415       -0.0008584552
 O         -1.3623813739       -0.7248555153        0.0006797934
 C         -0.3138611242        0.1161182314        0.0008396896
 O         -0.4248694286        1.3155939410        0.0002292063
 C          0.9639881801       -0.6328988713        0.0004756995
 C          2.1290181754       -0.0264307229       -0.7433004091
 C          2.1300248475       -0.0260171911        0.7421294751
 H         -3.3675708983       -0.9300006021        0.0065667779
 H         -2.7721439221        0.5002876021       -0.8925281941
 H         -2.7682024944        0.5132667540        0.8822153337
 H          0.8429632242       -1.7068889805        0.0008686852
 H          2.7879094291       -0.6983650439       -1.2710348522
 H          1.9449107733        0.9107483242       -1.2457246575
 H          2.7895152610       -0.6978858679        1.2692145456
 H          1.9468298414        0.9113667745        1.2445015423
  15
  -22.9019802900000       0.156826297479449      !mtd5
 C         -2.6462621235       -0.1171488250        0.0019374472
 O         -1.3623701567       -0.7248775322        0.0007853450
 C         -0.3138131679        0.1161117979       -0.0012690509
 O         -0.4249257006        1.3156022418       -0.0019101719
 C          0.9639978307       -0.6329284574       -0.0015580207
 C          2.1302725472       -0.0249067405       -0.7418800037
 C          2.1287712570       -0.0275335829        0.7435417802
 H         -2.7764069670        0.4953283021       -0.8926564940
 H         -2.7639790628        0.5183301639        0.8820564400
 H         -3.3675951021       -0.9299325758        0.0172856539
 H          0.8429533960       -1.7069275101       -0.0033784042
 H          2.7900659106       -0.6958530431       -1.2697446922
 H          1.9470928992        0.9132147496       -1.2428295973
 H          2.7873840836       -0.7003742662        1.2704983542
 H          1.9445651964        0.9088525752        1.2474226098
  15
  -22.9019802000000       0.156811362440482      !mtd1
 C         -2.6461882053       -0.1169493324        0.0018914613
 O         -1.3624108021       -0.7248684803        0.0007312619
 C         -0.3138009649        0.1158369699       -0.0012665369
 O         -0.4245832771        1.3153672977       -0.0017728627
 C          0.9640888653       -0.6331990473       -0.0015302900
 C          2.1300650681       -0.0248053747       -0.7419269277
 C          2.1285019133       -0.0271481233        0.7434897424
 H         -2.7628424835        0.5207303324        0.8805236813
 H         -3.3676255622       -0.9294849176        0.0200589485
 H         -2.7773979617        0.4933663618       -0.8940145689
 H          0.8432162327       -1.7071830878       -0.0031255027
 H          2.7902316262       -0.6954939671       -1.2695059529
 H          1.9463174316        0.9131143780       -1.2431011228
 H          2.7873722185       -0.6996568159        1.2706556009
 H          1.9435895145        0.9091528384        1.2472085565
  15
  -22.9018798400000       0.141011738056696      !gc
 C         -2.6632044932       -0.1441771812       -0.0015011825
 O         -1.3602813282       -0.7127193466       -0.0004012433
 C         -0.3123945532        0.1283200834        0.0010891459
 O         -0.4084318335        1.3292032217        0.0019186660
 C          0.9599439610       -0.6302004876        0.0016869718
 C          2.1287802069       -0.0333714259       -0.7439708205
 C          2.1305856236       -0.0298229182        0.7414241753
 H         -3.1832956011       -0.4774051112       -0.8998520041
 H         -2.5911585123        0.9450859752        0.0095597480
 H         -3.1915225459       -0.4956056355        0.8849078566
 H          0.8315705576       -1.7033294152        0.0040691393
 H          2.7823820350       -0.7113510387       -1.2705546718
 H          1.9510788631        0.9038470042       -1.2485513953
 H          2.7856266166       -0.7050906773        1.2696772973
 H          1.9538835239        0.9098403789        1.2418112548
  15
  -22.9018791500000       0.140908815289267      !gc
 C         -2.6629315966       -0.1434029704        0.0047835019
 O         -1.3604501074       -0.7130045898        0.0028391130
 C         -0.3123246084        0.1277626819       -0.0037155027
 O         -0.4083488616        1.3286657764       -0.0055963468
 C          0.9600925244       -0.6305451043       -0.0051006081
 C          2.1319869400       -0.0265967484       -0.7397817515
 C          2.1269618772       -0.0357953475        0.7455606576
 H         -2.5915939664        0.9421623871        0.0949216877
 H         -3.2123329192       -0.5584916109        0.8493396124
 H         -3.1608365612       -0.4085186410       -0.9285604056
 H          0.8322873525       -1.7036849298       -0.0112076452
 H          2.7888619340       -0.6991363073       -1.2691944956
 H          1.9554060418        0.9148794710       -1.2368003668
 H          2.7796906045       -0.7154772965        1.2710017418
 H          1.9475580430        0.8992805470        1.2534578150
  15
  -22.9011326600000       6.395508971803222E-002 !md5
 C         -2.3315472546       -0.5733404646       -0.0010380805
 O         -0.9135942190       -0.6225327869       -0.0011819017
 C         -0.2870622117        0.5664915991        0.0008298330
 O         -0.8735271918        1.6195788516        0.0023927970
 C          1.1880464081        0.4337205865        0.0006985284
 C          1.8414098207       -0.7068307026        0.7421422318
 C          1.8416297163       -0.7047182423       -0.7437873851
 H         -2.6719129974       -1.6057637800       -0.0067289537
 H         -2.6933929464       -0.0442825395       -0.8851144191
 H         -2.6934992803       -0.0541548857        0.8888335604
 H          1.6834984729        1.3956229739        0.0021384437
 H          2.7604663337       -0.4941677163        1.2662561489
 H          1.1899625221       -1.4015492684        1.2484208557
 H          2.7608427007       -0.4905604015       -1.2670188172
 H          1.1903526006       -1.3979915614       -1.2522461140
  15
  -22.9011326300000       6.395305944195047E-002 !mtd11
 C         -2.3316520034       -0.5732117009       -0.0027840442
 O         -0.9136899745       -0.6225906798       -0.0016649667
 C         -0.2870895944        0.5663845101        0.0019843271
 O         -0.8735329166        1.6194828382        0.0046587123
 C          1.1880014143        0.4336792181        0.0022921318
 C          1.8415384618       -0.7085956341        0.7408578868
 C          1.8417947483       -0.7028050452       -0.7450610377
 H         -2.6944033850       -0.0549512818        0.8872264920
 H         -2.6721954007       -1.6055156678       -0.0098837953
 H         -2.6925515183       -0.0431687572       -0.8865996687
 H          1.6833695984        1.3956332049        0.0061233812
 H          2.7605511648       -0.4969896414        1.2654933162
 H          1.1903064030       -1.4047473991        1.2454317764
 H          2.7609326401       -0.4872792159       -1.2678611716
 H          1.1905299167       -1.3949174857       -1.2551495789
  15
  -22.9011324200000       6.393884931343340E-002 !mtd5
 C         -2.3315914056       -0.5733509636       -0.0081395444
 O         -0.9135356571       -0.6224684671       -0.0043333036
 C         -0.2870976654        0.5664841403        0.0057052968
 O         -0.8735223568        1.6195670943        0.0122177908
 C          1.1880300565        0.4336788082        0.0075213482
 C          1.8401575780       -0.7152813577        0.7369091324
 C          1.8428726604       -0.6962388332       -0.7489053062
 H         -2.6908284511       -0.0457311996       -0.8941939645
 H         -2.6960285534       -0.0527410869        0.8799534992
 H         -2.6716830048       -1.6059357847       -0.0133060975
 H          1.6835588295        1.3954739642        0.0202895896
 H          2.7583794271       -0.5087593203        1.2649439979
 H          1.1878454623       -1.4158032726        1.2340121520
 H          2.7629086300       -0.4761227567       -1.2682180997
 H          1.1924130105       -1.3836928906       -1.2663049561
  15
  -22.9010030800000       5.576019292267691E-002 !mtd4
 C         -2.3330886613       -0.5916853036       -0.0114561056
 O         -0.9140149939       -0.6144743573       -0.0017281726
 C         -0.2867379267        0.5736724053        0.0053107632
 O         -0.8636042627        1.6319874680        0.0149099931
 C          1.1879273180        0.4326914048        0.0081734048
 C          1.8354664819       -0.7199230960        0.7357075562
 C          1.8380108873       -0.6987131313       -0.7500327843
 H         -2.6953301102       -0.6062315912       -1.0416008428
 H         -2.6976470800        0.3102744590        0.4837722484
 H         -2.6682410562       -1.4833761578        0.5145691598
 H          1.6878192619        1.3922064568        0.0222054887
 H          2.7546160288       -0.5177947142        1.2638110836
 H          1.1805852550       -1.4185575820        1.2319611887
 H          2.7588158206       -0.4816161208       -1.2692269506
 H          1.1847365629       -1.3828828009       -1.2681959714
