! r2scan-3c def2/J RI DEFGRID2 scfconv6 printgap
%output
    printlevel normal
end
* xyz 0 1
C -2.3610502746 -0.1292411399 -1.2425477864
C -1.9485309845 0.1387218601 0.2028898827
C -1.9256301054 -1.1546284254 1.0141643223
C -0.5847685242 0.8289641238 0.2515009595
O 0.4078290355 -0.0308325732 -0.3226499438
C 1.675124867 0.1648826599 0.0129453351
O 2.0368627982 1.0346346333 0.7803037319
C 2.5854611153 -0.8093663245 -0.673452529
H -1.6320636463 -0.7761992113 -1.7228932134
H -2.4215281043 0.8009842304 -1.8016647134
H -3.3324395297 -0.6147007852 -1.2716364376
H -2.6635055935 0.8316991208 0.6574750063
H -1.6347026173 -0.9568911789 2.0432720542
H -1.2154351576 -1.8543454984 0.5810155514
H -2.9095542171 -1.6149720921 1.0149425063
H -0.5990355495 1.7621593185 -0.321378145
H -0.2900270896 1.0616679879 1.2804735996
H 2.5944245359 -0.5905003948 -1.738309937
H 2.2084967231 -1.8186428141 -0.5379340804
H 3.5882739926 -0.7164739706 -0.2702842393
*
