  15
  -19.0504070500000       0.166689298641465      !mtd7
 C         -2.4393927426        0.0000115900        0.0066050476
 C         -0.9404746981       -0.0000763837       -0.0090846172
 C         -0.2312574798       -1.1946021360       -0.0052242958
 C          1.1522413423       -1.1962995940        0.0015300449
 C          1.8485269955        0.0000279339        0.0049428168
 C          1.1521225631        1.1963797376        0.0016500146
 C         -0.2313012900        1.1945408100       -0.0052343408
 H         -2.8331999860       -0.8865537413       -0.4852789546
 H         -2.8004838011        0.0024764306        1.0358801516
 H         -2.8330961706        0.8842349210       -0.4894977754
 H         -0.7692030722       -2.1323600051       -0.0087636589
 H          1.6885327525       -2.1343381397        0.0030184112
 H          2.9286401246        0.0002246822        0.0084958231
 H          1.6885284964        2.1343394190        0.0026042283
 H         -0.7694816105        2.1321914381       -0.0090746279
  15
  -19.0504070400000       0.166687534753092      !mtd12
 C         -2.4394053350       -0.0002516195        0.0066292569
 C         -0.9404561348        0.0001362053       -0.0091373377
 C         -0.2312800551       -1.1945600903       -0.0052043048
 C          1.1520936984       -1.1962967870        0.0015391256
 C          1.8485149811        0.0000555891        0.0049114737
 C          1.1522710606        1.1963682547        0.0016982954
 C         -0.2312484746        1.1946450543       -0.0052571573
 H         -2.8004916746       -0.0102804531        1.0358725483
 H         -2.8332985743        0.8897507375       -0.4788849436
 H         -2.8329761543       -0.8808796384       -0.4958747641
 H         -0.7696052465       -2.1320943568       -0.0091676541
 H          1.6884537908       -2.1343260526        0.0027098651
 H          2.9286393444       -0.0000874079        0.0086027780
 H          1.6885154009        2.1344258673        0.0029554455
 H         -0.7692986730        2.1323400559       -0.0087662996
  15
  -19.0504070000000       0.166680479386879      !md1
 C         -2.4393910683        0.0006022967       -0.0092627938
 C         -0.9404682100       -0.0005277073        0.0077374729
 C         -0.2311282023       -1.1948731801        0.0046679982
 C          1.1524266928       -1.1962973757       -0.0002049853
 C          1.8485416662        0.0000967495       -0.0024930413
 C          1.1519359723        1.1963585926       -0.0001779422
 C         -0.2314475019        1.1942841902        0.0047621015
 H         -2.7995637955        0.0330389434       -1.0383423368
 H         -2.8342354195       -0.8991252472        0.4570662585
 H         -2.8329920482        0.8708272879        0.5112898909
 H         -0.7688187727       -2.1327667451        0.0081222236
 H          1.6889264310       -2.1342250316       -0.0006499089
 H          2.9286604225        0.0002538777       -0.0049666677
 H          1.6881057815        2.1344806260       -0.0005458985
 H         -0.7699013782        2.1317638632        0.0080988305
  15
  -19.0504070000000       0.166680479386879      !md2
 C         -2.4392302913       -0.0003969975       -0.0097332638
 C         -0.9404044738        0.0002589700        0.0081430070
 C         -0.2313499870       -1.1944492056        0.0050349880
 C          1.1520455576       -1.1963343285       -0.0002382026
 C          1.8484440918        0.0000071442       -0.0028003878
 C          1.1522133585        1.1963587080       -0.0001698842
 C         -0.2312792137        1.1947708421        0.0050722269
 H         -2.8334831406       -0.8765470647        0.5001205696
 H         -2.8338627841        0.8937488748        0.4671883485
 H         -2.7987713418       -0.0200755981       -1.0393780038
 H         -0.7697919083       -2.1318941305        0.0078533416
 H          1.6883650158       -2.1343569155       -0.0009157325
 H          2.9284842620       -0.0001595154       -0.0053668394
 H          1.6887759386        2.1342014174       -0.0009127066
 H         -0.7691736613        2.1325192259        0.0081505844
  15
  -19.0504069200000       0.166666369550334      !md1
 C         -2.4393901823        0.0007681068        0.0064959350
 C         -0.9404431177       -0.0006387528       -0.0089821587
 C         -0.2310813663       -1.1949433270       -0.0052527765
 C          1.1524913739       -1.1963039338        0.0015223370
 C          1.8485217614        0.0001138833        0.0049207264
 C          1.1518691298        1.1963337187        0.0015512831
 C         -0.2314948060        1.1942216558       -0.0051602613
 H         -2.8323265277        0.8669665950       -0.5212451006
 H         -2.8338573588       -0.9024032363       -0.4533063699
 H         -2.8006469395        0.0413281930        1.0348849849
 H         -0.7687300024       -2.1328805298       -0.0092002329
 H          1.6890928801       -2.1341802659        0.0025699897
 H          2.9286321415        0.0003747431        0.0089242827
 H          1.6879671723        2.1344680104        0.0038654834
 H         -0.7699911876        2.1316729752       -0.0080418663
  15
  -19.0504065200000       0.166595838281351      !md1
 C         -2.4393720702        0.0023562256       -0.0090052955
 C         -0.9404432941       -0.0018848651        0.0074376219
 C         -0.2307606760       -1.1956344019        0.0045728965
 C          1.1530686102       -1.1963351364       -0.0002256064
 C          1.8485171934        0.0002189451       -0.0023953447
 C          1.1512857429        1.1963461517       -0.0000769427
 C         -0.2318330236        1.1935597940        0.0045715420
 H         -2.8307459837        0.8247172221        0.5862195095
 H         -2.8001697625        0.1271079856       -1.0306953788
 H         -2.8357237230       -0.9336021017        0.3774829165
 H         -0.7675751516       -2.1340496491        0.0070062459
 H          1.6899350873       -2.1340448019       -0.0009067543
 H          2.9286484104        0.0010481887       -0.0047640992
 H          1.6871090995        2.1346575252       -0.0003795526
 H         -0.7712149324        2.1305308973        0.0078963053
