  15
        -19.05040705
 C         -2.4393927426        0.0000115900        0.0066050476
 C         -0.9404746981       -0.0000763837       -0.0090846172
 C         -0.2312574798       -1.1946021360       -0.0052242958
 C          1.1522413423       -1.1962995940        0.0015300449
 C          1.8485269955        0.0000279339        0.0049428168
 C          1.1521225631        1.1963797376        0.0016500146
 C         -0.2313012900        1.1945408100       -0.0052343408
 H         -2.8331999860       -0.8865537413       -0.4852789546
 H         -2.8004838011        0.0024764306        1.0358801516
 H         -2.8330961706        0.8842349210       -0.4894977754
 H         -0.7692030722       -2.1323600051       -0.0087636589
 H          1.6885327525       -2.1343381397        0.0030184112
 H          2.9286401246        0.0002246822        0.0084958231
 H          1.6885284964        2.1343394190        0.0026042283
 H         -0.7694816105        2.1321914381       -0.0090746279
