  21
        -25.39131435
 C         -3.0643925704        0.3926605461        0.0005615894
 C         -1.6064949910        0.0423525840       -0.0006619087
 C         -1.1778932426       -1.2754870600       -0.0002886507
 C          0.1738387149       -1.5712464827        0.0000832851
 C          1.1310805868       -0.5683341158        0.0001626768
 C          0.7100684552        0.7651241591       -0.0000655407
 C         -0.6466756888        1.0468346126       -0.0004896927
 C          1.7118494505        1.8799609908        0.0001343909
 C          2.5900429001       -0.9105862508        0.0001775074
 H         -3.3172083447        0.9621730735        0.8945083828
 H         -3.3089463782        1.0072910519       -0.8650973003
 H         -3.6796754906       -0.5032621781       -0.0246585021
 H         -1.9020168097       -2.0778390063       -0.0005121240
 H          0.4905833197       -2.6050573887        0.0001335677
 H         -0.9703478883        2.0791421214       -0.0007258953
 H          1.2136599976        2.8462067198       -0.0005743555
 H          2.3518372201        1.8209189982        0.8801942095
 H          2.3530055115        1.8202044266       -0.8790336741
 H          3.0821986981       -0.4977477051       -0.8802560272
 H          3.0828615143       -0.4954766756        0.8791492113
 H          2.7321178693       -1.9884235311        0.0014765054
  21
        -25.38954915
 C         -3.0632293255        0.3837814023        0.0072392005
 C         -1.6010823943        0.0524210632       -0.0051755074
 C         -1.1757543532       -1.2699266065       -0.0036947842
 C          0.1721968095       -1.5680640250       -0.0009500537
 C          1.1393272544       -0.5694060226        0.0004364875
 C          0.7228671205        0.7619060059       -0.0016849905
 C         -0.6377708633        1.0474158052       -0.0039916213
 C          1.6856898018        1.9152460177       -0.0000435067
 C          2.5922496193       -0.9482604702        0.0033938259
 H         -3.4870298064        0.1751478511        0.9899644138
 H         -3.2268007195        1.4345439747       -0.2194133729
 H         -3.6000349279       -0.2208773018       -0.7216527461
 H         -1.9046976308       -2.0678520362       -0.0053588236
 H          0.4849489684       -2.6031212318       -0.0004525317
 H         -0.9480893649        2.0838973490       -0.0058686545
 H          1.5409712967        2.5188702333        0.8958608844
 H          2.7192998600        1.5884033769       -0.0294760882
 H          1.5014994849        2.5550553568       -0.8624999684
 H          2.7001773181       -2.0302396384        0.0092692234
 H          3.0965936465       -0.5606653464       -0.8813722221
 H          3.0954771231       -0.5507241350        0.8842795553
