  21
        -25.39131435
 C         -3.0643925704        0.3926605461        0.0005615894
 C         -1.6064949910        0.0423525840       -0.0006619087
 C         -1.1778932426       -1.2754870600       -0.0002886507
 C          0.1738387149       -1.5712464827        0.0000832851
 C          1.1310805868       -0.5683341158        0.0001626768
 C          0.7100684552        0.7651241591       -0.0000655407
 C         -0.6466756888        1.0468346126       -0.0004896927
 C          1.7118494505        1.8799609908        0.0001343909
 C          2.5900429001       -0.9105862508        0.0001775074
 H         -3.3172083447        0.9621730735        0.8945083828
 H         -3.3089463782        1.0072910519       -0.8650973003
 H         -3.6796754906       -0.5032621781       -0.0246585021
 H         -1.9020168097       -2.0778390063       -0.0005121240
 H          0.4905833197       -2.6050573887        0.0001335677
 H         -0.9703478883        2.0791421214       -0.0007258953
 H          1.2136599976        2.8462067198       -0.0005743555
 H          2.3518372201        1.8209189982        0.8801942095
 H          2.3530055115        1.8202044266       -0.8790336741
 H          3.0821986981       -0.4977477051       -0.8802560272
 H          3.0828615143       -0.4954766756        0.8791492113
 H          2.7321178693       -1.9884235311        0.0014765054
