  15
  -22.6325244400000       0.166705757032904      !md2
 C         -4.1674457769       -0.0001863387       -0.0105896115
 C         -2.6701938408        0.0001533967        0.0084544201
 C         -1.9604005296       -1.1950957049        0.0060259406
 C         -0.5775909505       -1.2046316399        0.0020027077
 C          0.1027351793        0.0000364783       -0.0001071692
 C         -0.5775381685        1.2047004536        0.0019865372
 C         -1.9603763500        1.1953346365        0.0060717165
 Br         2.0113233532       -0.0000326211       -0.0013677738
 H         -4.5621551400        0.8891742520        0.4746642577
 H         -4.5246563199       -0.0087631081       -1.0409747578
 H         -4.5617250867       -0.8818261023        0.4890020473
 H         -2.4945317087       -2.1340113119        0.0084838048
 H         -0.0340474181       -2.1369938890        0.0020010477
 H         -0.0338506234        2.1369988033        0.0017916282
 H         -2.4943983795        2.1342979878        0.0084825266
  15
  -22.6325244400000       0.166705757032904      !mtd9
 C         -4.1675092248        0.0002770321       -0.0100343843
 C         -2.6702430732       -0.0002278511        0.0081471660
 C         -1.9603542581       -1.1953704424        0.0055366921
 C         -0.5774897517       -1.2046978998        0.0018052944
 C          0.1027677895       -0.0000254035        0.0001382543
 C         -0.5776351163        1.2046245987        0.0017974235
 C         -1.9604239625        1.1950428625        0.0055651441
 Br         2.0113412191        0.0000350757       -0.0012497283
 H         -4.5252650867        0.0126080765       -1.0401799817
 H         -4.5621708878       -0.8906780588        0.4722247348
 H         -4.5615195533        0.8802218547        0.4927196996
 H         -2.4942909939       -2.1343752608        0.0081611621
 H         -0.0338646154       -2.1369956167        0.0022220182
 H         -0.0341364313        2.1370058994        0.0017079373
 H         -2.4946139646        2.1339262761        0.0078301083
  15
  -22.6325243900000       0.166696936907532      !mtd4
 C         -4.1675221945       -0.0002184267       -0.0109826317
 C         -2.6702865597        0.0001945818        0.0087973242
 C         -1.9604533273       -1.1950639408        0.0068086855
 C         -0.5776419358       -1.2045935613        0.0032037576
 C          0.1026573768        0.0000835734        0.0010311296
 C         -0.5775776252        1.2047502447        0.0031867888
 C         -1.9604286992        1.1953616684        0.0068558266
 Br         2.0113981097       -0.0000624858       -0.0021633421
 H         -4.5623184321       -0.8815598948        0.4887304430
 H         -4.5628264294        0.8894260853        0.4733018272
 H         -4.5238814151       -0.0094886044       -1.0416260318
 H         -2.4945413406       -2.1340180823        0.0093102685
 H         -0.0340733609       -2.1369374268        0.0029739748
 H         -0.0339086812        2.1370613308        0.0036394860
 H         -2.4944680007        2.1343433971        0.0099357420
  15
  -22.6325243300000       0.166686353372946      !gc
 C         -4.1675549057        0.0008607870        0.0071193926
 C         -2.6702436204       -0.0007577717       -0.0096605746
 C         -1.9603076161       -1.1957213421       -0.0065154715
 C         -0.5773389864       -1.2049080434       -0.0017183892
 C          0.1027520228       -0.0002328203        0.0002912829
 C         -0.5777914810        1.2044167747       -0.0017048438
 C         -1.9604950846        1.1947020219       -0.0065135743
 Br         2.0113573387        0.0001828748        0.0022533612
 H         -4.5267806682        0.0446846545        1.0358625862
 H         -4.5601798717        0.8658165255       -0.5221864430
 H         -4.5622327923       -0.9036113575       -0.4491448409
 H         -2.4939698024       -2.1348933381       -0.0089473848
 H         -0.0336539826       -2.1372008510       -0.0011843996
 H         -0.0342851928        2.1368174663       -0.0012060897
 H         -2.4949399106        2.1334373477       -0.0089635583
  15
  -22.6325241300000       0.166651079778068      !md2
 C         -4.1675018355        0.0018247014        0.0074229043
 C         -2.6702376242       -0.0016120861       -0.0098302534
 C         -1.9602158226       -1.1962963884       -0.0070720916
 C         -0.5771049936       -1.2051873917       -0.0026080195
 C          0.1027532140       -0.0005076737       -0.0003314254
 C         -0.5780379983        1.2041373470       -0.0025605035
 C         -1.9605796686        1.1941217941       -0.0071236546
 Br         2.0113474281        0.0003957598        0.0027928285
 H         -4.5635946762       -0.9218026000       -0.4071441131
 H         -4.5260592931        0.0938290866        1.0331685444
 H         -4.5593381076        0.8424709480       -0.5605113324
 H         -2.4934627571       -2.1357083884       -0.0095807101
 H         -0.0333310485       -2.1374305224       -0.0020459381
 H         -0.0346479905        2.1366054100       -0.0022214365
 H         -2.4954774066        2.1326048665       -0.0096752485
  15
  -22.6325235800000       0.166554115875646      !md2
 C         -4.1674780185       -0.0029241927        0.0068943942
 C         -2.6702110859        0.0025186659       -0.0093927552
 C         -1.9606988877       -1.1935527623       -0.0067386475
 C         -0.5783139170       -1.2039110051       -0.0025863183
 C          0.1027332994        0.0007249091       -0.0006593461
 C         -0.5767893561        1.2054294932       -0.0024973042
 C         -1.9600650772        1.1968858814       -0.0067378787
 Br         2.0113312118       -0.0005619206        0.0027887024
 H         -4.5644347248        0.9406365926       -0.3587642815
 H         -4.5576032440       -0.8128615327       -0.6054450504
 H         -4.5268661124       -0.1507908254        1.0257165332
 H         -2.4961788462       -2.1317478521       -0.0096432737
 H         -0.0350615234       -2.1364580250       -0.0025154162
 H         -0.0328753299        2.1375767970       -0.0023403166
 H         -2.4928176776        2.1365706817       -0.0092815434
