  22
  -59.1035494500000       0.500005290974645      !mtd8
 C         -1.5027946405        1.1831862526       -0.5685471690
 C         -0.8037213824        0.1664872600        0.0740363495
 C         -1.5070801332       -0.8432365649        0.7220712761
 C         -2.8919109271       -0.8407355738        0.7166072365
 C         -3.6004157313        0.1670448250        0.0624600772
 C         -2.8875420129        1.1799250238       -0.5782818365
 Cl        -3.7343153409        2.4367033343       -1.3879369585
 Cl        -5.3153554670        0.1628770356        0.0498110666
 Cl        -3.7450781101       -2.0918763960        1.5269310905
 C          0.6705539669        0.1862072925        0.0784808999
 C          1.3370667059        1.3387320457        0.4810037451
 C          2.7201277264        1.3932488503        0.5048286133
 C          3.4736949966        0.2865282694        0.1147615704
 C          2.8173565661       -0.8698761875       -0.3058692968
 C          1.4237946319       -0.9196019001       -0.3227348679
 Cl         0.6539009460       -2.3429130378       -0.9012004167
 Cl         3.7329950829       -2.2292773514       -0.8067769017
 Cl         5.1852229968        0.3423383923        0.1429668671
 Cl         3.5107735008        2.8273531451        1.0172058090
 H         -0.9709146805        1.9687365427       -1.0806856664
 H         -0.9839130964       -1.6251512280        1.2475818995
 H          0.7673558269        2.1978778134        0.7965337905
  22
  -59.1035494300000       0.499994709025355      !md3
 C         -1.5079877140        0.4056439530       -1.0320879182
 C         -0.8037283027        0.1234382642        0.1334850975
 C         -1.5018801359       -0.1516460681        1.3049255159
 C         -2.8866349900       -0.1620639802        1.3062147622
 C         -3.6003756054        0.1122564266        0.1400272841
 C         -2.8928588032        0.4010435952       -1.0268464158
 Cl        -3.7472628675        0.7567945174       -2.4735850182
 Cl        -5.3153867519        0.0983375015        0.1414776908
 Cl        -3.7322137649       -0.5162360025        2.7594283070
 C          0.6705532826        0.1346671880        0.1498096540
 C          1.3371435474        0.8914835164        1.1076428646
 C          2.7201730067        0.9327427949        1.1506103030
 C          3.4736737641        0.2036689254        0.2310881459
 C          2.8173372719       -0.5717669758       -0.7244193370
 C          1.4238003975       -0.6048702881       -0.7650157895
 Cl         0.6539033530       -1.6167468460       -1.9212545510
 Cl         3.7329113037       -1.4881119772       -1.8465192233
 Cl         5.1852321611        0.2501752989        0.2732854766
 Cl         3.5109226242        1.8855074208        2.3385525438
 H         -0.9855816661        0.6469094659       -1.9432925037
 H         -0.9690887582       -0.3789551931        2.2141816831
 H          0.7674950443        1.4696101067        1.8172543035
