  19
        -26.29457877
 C         -3.0759978863       -0.3676200711       -0.0010023244
 C         -1.6172509141       -0.0219810095        0.0007652865
 C         -1.1823753613        1.2932555190        0.0007120223
 C          0.1720003777        1.5858891166        0.0001267814
 C          1.1282560177        0.5863621355       -0.0002489125
 C          0.6891217491       -0.7422793706        0.0001171305
 C         -0.6649510347       -1.0343739458        0.0005197979
 O          1.6334966501       -1.7284860443        0.0000812409
 C          2.5960224360        0.8782149511       -0.0006289802
 H         -3.3298496879       -0.9410877684       -0.8920658678
 H         -3.3246980432       -0.9755997216        0.8681512655
 H         -3.6870021250        0.5309304428        0.0179400366
 H         -1.9034989789        2.0973092976        0.0008712369
 H          0.4932182413        2.6175876270        0.0002119578
 H         -0.9856095595       -2.0694208738        0.0005733812
 H          1.1975714440       -2.5887157915        0.0004695303
 H          3.0647367773        0.4382554039        0.8785717364
 H          3.0656724460        0.4308525417       -0.8754598083
 H          2.7788770954        1.9493020525       -0.0048527053
