  19
        -26.29457877
 C         -3.0759978863       -0.3676200711       -0.0010023244
 C         -1.6172509141       -0.0219810095        0.0007652865
 C         -1.1823753613        1.2932555190        0.0007120223
 C          0.1720003777        1.5858891166        0.0001267814
 C          1.1282560177        0.5863621355       -0.0002489125
 C          0.6891217491       -0.7422793706        0.0001171305
 C         -0.6649510347       -1.0343739458        0.0005197979
 O          1.6334966501       -1.7284860443        0.0000812409
 C          2.5960224360        0.8782149511       -0.0006289802
 H         -3.3298496879       -0.9410877684       -0.8920658678
 H         -3.3246980432       -0.9755997216        0.8681512655
 H         -3.6870021250        0.5309304428        0.0179400366
 H         -1.9034989789        2.0973092976        0.0008712369
 H          0.4932182413        2.6175876270        0.0002119578
 H         -0.9856095595       -2.0694208738        0.0005733812
 H          1.1975714440       -2.5887157915        0.0004695303
 H          3.0647367773        0.4382554039        0.8785717364
 H          3.0656724460        0.4308525417       -0.8754598083
 H          2.7788770954        1.9493020525       -0.0048527053
  19
        -26.29422260
 C         -3.0772713116       -0.3755470406        0.0096114792
 C         -1.6161691819       -0.0425568744       -0.0073274126
 C         -1.1893831392        1.2794586550       -0.0047811510
 C          0.1595505340        1.5801728290       -0.0007146508
 C          1.1241148099        0.5837434422        0.0011178357
 C          0.6940538955       -0.7455865987       -0.0008808525
 C         -0.6619060165       -1.0464205806       -0.0049088394
 O          1.5699523826       -1.7915384146       -0.0006391955
 C          2.5906941251        0.9175880987        0.0032720402
 H         -3.6406230863        0.3295597031       -0.5978498129
 H         -3.2506653637       -1.3818370474       -0.3629733322
 H         -3.4600302910       -0.3198086503        1.0291849315
 H         -1.9168895845        2.0777327125       -0.0069748570
 H          0.4749863818        2.6139769229       -0.0002325539
 H         -0.9505266889       -2.0862425618       -0.0071978866
 H          2.4731721870       -1.4540802443       -0.0004298115
 H          3.0854512061        0.5143870371        0.8893637453
 H          3.0872665608        0.5182414844       -0.8835412732
 H          2.7279199402        1.9955487383        0.0057526329
  19
        -26.29412783
 C         -3.0749912407       -0.3655711072        0.0031114921
 C         -1.6156691760       -0.0225708969       -0.0020004974
 C         -1.1787771186        1.2932170038       -0.0011378214
 C          0.1747026102        1.5807565565       -0.0006831742
 C          1.1324703331        0.5792650359       -0.0005722763
 C          0.6926296676       -0.7473636838       -0.0004054884
 C         -0.6646855467       -1.0341228513       -0.0016977731
 O          1.6233706850       -1.7484053611       -0.0002018785
 C          2.5953130019        0.9072365301        0.0016563861
 H         -3.3146988159       -1.0309083869       -0.8252671163
 H         -3.3407952041       -0.8764943083        0.9283666514
 H         -3.6837524440        0.5306248776       -0.0827404735
 H         -1.8986213414        2.0984387568       -0.0015431274
 H          0.5018997646        2.6106512125       -0.0013314323
 H         -0.9872510801       -2.0687022522       -0.0025587842
 H          1.1722391371       -2.6005025353       -0.0024327090
 H          3.1840024975       -0.0026838393       -0.0595981981
 H          2.8420387222        1.5477376952       -0.8439010376
 H          2.8624343234        1.4380123855        0.9148169097
