! r2scan-3c def2/J RI DEFGRID2 scfconv6 printgap
%output
    printlevel normal
end
%cpcm
    smd true
    smdsolvent "water"
end
* xyz 0 1
C -3.0705913693 0.7913406199 0.0575684093
C -1.5837204318 0.6848101617 0.3732026216
C -0.9247642339 -0.419591621 -0.4556582581
C 0.5454632693 -0.5868549524 -0.1743550977
O 1.1144105968 -1.6602332765 -0.1445523177
O 1.1564885988 0.5725799376 0.024791657
C 2.5619058311 0.5797265522 0.2913720393
H -3.2221367742 1.0298489174 -0.9920877645
H -3.5746633709 -0.1476035075 0.2730270173
H -3.5277969271 1.5727761273 0.6581396366
H -1.4496490995 0.4656850112 1.4340691006
H -1.0910791785 1.6342107403 0.162406645
H -1.0217759038 -0.1833696277 -1.5184258918
H -1.4068794349 -1.382393763 -0.2808748706
H 2.7220773764 1.2598807421 1.1244256099
H 3.0804053682 0.9379992426 -0.5971036193
H 2.8982321447 -0.4275458721 0.5396076996
*
