! r2scan-3c def2/J RI DEFGRID2 scfconv6 printgap
%output
    printlevel normal
end
%cpcm
    smd true
    smdsolvent "water"
end
* xyz 0 1
C 1.8628433569 -1.2431470366 -0.0111267262
O 0.9422133486 -0.482699983 -0.8059976427
S 0.0003404655 0.4796159608 -2.41438e-05
O -0.7425885698 1.2093766286 -0.9790785978
O 0.7449187747 1.209098578 0.9783061918
O -0.9351230799 -0.4903095285 0.8016786685
C -1.872807042 -1.2461754239 0.0166702446
H 1.3332698788 -2.0649702729 0.4692868562
H 2.2960518974 -0.5863482414 0.7419676717
H 2.6196826315 -1.6110871985 -0.6991166342
H -2.8702523891 -0.8483137201 0.1956287651
H -1.8050781561 -2.2820855388 0.3434533919
H -1.6153109691 -1.1461693004 -1.0356918739
*
