! r2scan-3c def2/J RI DEFGRID2 scfconv6 printgap
%output
    printlevel normal
end
%cpcm
    smd true
    smdsolvent "water"
end
* xyz 0 1
C 1.9520608942 -0.75727952 -0.7971138011
C 1.19782867 -0.1147651486 0.3631550321
H 0.9008312782 -0.8998191152 1.076938555
C -0.059055165 0.6447389009 -0.1072546065
C -1.3818156268 -0.0724235983 0.1870522694
C -2.5522314841 0.8540780888 -0.140972012
C -1.5122016809 -1.3735280185 -0.6009122184
O 2.1219375333 0.7533854648 1.0080527933
H 2.8080514925 -1.3094812653 -0.4177834492
H 1.3041622625 -1.430339637 -1.3478522815
H 2.3153233482 0.0217399923 -1.4625428149
H -0.0747728183 1.6163166829 0.3926007875
H 0.0147856641 0.8388231106 -1.1785442436
H -1.4188540285 -0.3102051244 1.2567650018
H -2.5418838116 1.1145303095 -1.1969285044
H -2.4940384959 1.7717415977 0.4396192221
H -3.497823966 0.3663818726 0.0828978935
H -0.734591221 -2.079154807 -0.3214437339
H -2.4766015372 -1.8360865378 -0.403703302
H -1.4382909171 -1.1774818764 -1.6682614626
H 1.7192121238 1.1158397558 1.8078282465
*
