  27
        -44.03303980
 C         -2.7698479868       -1.2777583145       -2.0400117332
 C         -3.4956651054       -0.8455803561       -0.7711277966
 C         -2.5837658992       -0.8800878024        0.4576816289
 H         -2.1733919709       -1.8898168884        0.5654924119
 C         -3.3216507355       -0.4993302699        1.7368577763
 N         -1.4012502431       -0.0231817275        0.2645533291
 C         -0.1578107776       -0.6646040234        0.2536819933
 O         -0.0525376511       -1.8590761397        0.4114101878
 C          0.9727984609        0.2210715144        0.0408451869
 C          0.8380591923        1.5555189123       -0.1307871127
 N         -0.4263996881        2.0639402684       -0.0985343625
 C         -1.5850092981        1.3258236915        0.0935256079
 O         -2.6536109651        1.8887909074        0.0997371746
 C          1.9760241118        2.4904343207       -0.3504009783
 Br         2.6673976938       -0.6102008912        0.0165317963
 H         -2.3147560428       -2.2570038310       -1.9061039250
 H         -3.4666708460       -1.3307310343       -2.8726557180
 H         -1.9852437720       -0.5696425595       -2.3015378599
 H         -3.9011377130        0.1588252674       -0.8943073273
 H         -4.3271392398       -1.5253350499       -0.5790260708
 H         -4.1162374679       -1.2171923947        1.9196534194
 H         -2.6404551854       -0.5134998688        2.5850966365
 H         -3.7568744028        0.4917388825        1.6463697536
 H         -0.5742538211        3.0574236956       -0.2209418181
 H          2.5337804885        2.1969103043       -1.2389478795
 H          2.6662223554        2.4414135711        0.4910442468
 H          1.6275090762        3.5129655290       -0.4680255379
