! pbe def2-sv(p) def2/J RI DEFGRID1 loosescf d4 GCP(DFT/SV(P)) printgap
%output
    printlevel normal
end
* xyz 0 1
C -2.6942880442 0.4571020209 0.921497655
C -2.1456254823 0.3799332313 -0.4983589995
C -0.873872316 -0.4533153825 -0.5691169631
O 0.1638606087 0.2323608999 0.1471407284
C 1.4143455745 -0.1718270117 -0.0313392999
O 1.7152472002 -1.1008439706 -0.7540046355
C 2.3846759712 0.6650932673 0.746479748
H -3.5865311278 1.076131037 0.9472369593
H -2.9496935071 -0.5352752241 1.285131152
H -1.9508788671 0.8887988726 1.5861663363
H -1.9242059025 1.3835512499 -0.8631252816
H -2.8822204355 -0.0739968192 -1.1612778648
H -1.0166147768 -1.4375136052 -0.1105758913
H -0.5426220121 -0.6014909523 -1.6024882838
H 3.3344071767 0.1464700533 0.8230339335
H 1.9774024633 0.8838030791 1.7283309681
H 2.5299801984 1.6049005109 0.2182991217
*
