! r2scan-3c def2/J RI DEFGRID2 scfconv6 printgap
%output
    printlevel normal
end
%cpcm
    smd true
    smdsolvent "water"
end
* xyz 0 1
C -2.8507225007 -0.1657252041 0.3864194335
C -1.6729803283 0.7462573117 0.0711788146
C -0.4059863593 -0.0285037909 -0.1864429413
O -0.3344325952 -1.2293473873 -0.3346069004
O 0.6447442782 0.7853182761 -0.2554561202
C 1.939490346 0.2102576123 -0.5001830278
C 2.5922755208 -0.2462413346 0.7956336127
H -2.9957590393 -0.8818554801 -0.4183805399
H -2.6644543769 -0.7232663165 1.3006768397
H -3.7562596286 0.4204475291 0.5082443776
H -1.4800394532 1.4453143876 0.8855730315
H -1.8742307982 1.3367948588 -0.8252220887
H 1.8229673878 -0.6314084777 -1.189716087
H 2.5097895259 1.0109841043 -0.9717869382
H 3.5929666198 -0.6095319526 0.5858312496
H 2.6499812927 0.5815756147 1.4972196195
H 2.0111474822 -1.0501677338 1.242056943
*
