  24
        -28.54515235
 C         -2.1327616349        1.4050390158        0.0002977587
 C         -1.5145950600        0.0042305911       -0.0000192411
 C         -2.0015091742       -0.7324419083        1.2558753969
 C         -2.0010676058       -0.7316989676       -1.2564553896
 C          0.0063960908        0.0324429588        0.0001636740
 C          0.7409278041        1.2117717812        0.0001013663
 C          2.1260703664        1.1930969830        0.0000640855
 C          2.8113831612       -0.0069963941       -0.0000653459
 C          2.0948851939       -1.1911376800       -0.0000371869
 C          0.7131664491       -1.1679746684        0.0001478232
 H         -3.2178973939        1.3219098977        0.0001378103
 H         -1.8395277119        1.9623906608        0.8870134977
 H         -1.8392343122        1.9629695830       -0.8858764425
 H         -1.6420182151       -0.2278916051        2.1504480932
 H         -3.0891129340       -0.7496131237        1.2824583129
 H         -1.6447144011       -1.7583908845        1.2776261664
 H         -3.0887348082       -0.7492163250       -1.2833098393
 H         -1.6415929205       -0.2264500898       -2.1506799674
 H         -1.6440579643       -1.7575856503       -1.2788106868
 H          0.2440430120        2.1683970557        0.0000570400
 H          2.6703987243        2.1267749477        0.0000988002
 H          3.8913703800       -0.0211218682       -0.0001334196
 H          2.6146531135       -2.1386348324       -0.0001535441
 H          0.1817593558       -2.1081604319        0.0002549510
  24
        -28.54433144
 C         -2.1046195211        0.5914314482       -1.2714877655
 C         -1.5156955945        0.0058730793        0.0185098548
 C         -2.0839548033        0.8070658256        1.1963817913
 C         -1.9490773307       -1.4613371528        0.1523328553
 C          0.0059029827        0.0356098942       -0.0009540889
 C          0.7439197262        0.1711859079        1.1705421818
 C          2.1276195210        0.1557169312        1.1554033180
 C          2.8127045664       -0.0010872069       -0.0354065762
 C          2.0947800964       -0.1497808895       -1.2081322110
 C          0.7115907804       -0.1352856258       -1.1882128500
 H         -1.9066755363       -0.0449254330       -2.1294510679
 H         -3.1845054025        0.6827546390       -1.1751974377
 H         -1.6922595750        1.5792138339       -1.4654296458
 H         -1.8655520063        0.3306249409        2.1482846000
 H         -1.6760606859        1.8155810500        1.2053219496
 H         -3.1662719560        0.8756465050        1.1065212591
 H         -3.0344973939       -1.5349067189        0.1721413122
 H         -1.5763840719       -2.0469203933       -0.6852665524
 H         -1.5547926931       -1.8919839864        1.0703415957
 H          0.2455568597        0.2905396670        2.1192286596
 H          2.6718554251        0.2659243512        2.0825980170
 H          3.8926687809       -0.0113422703       -0.0491530613
 H          2.6133571892       -0.2798246864       -2.1473693580
 H          0.1856198445       -0.2614757072       -2.1212049129
