! r2scan-3c def2/J RI DEFGRID2 scfconv6 printgap
%output
    printlevel normal
end
* xyz 0 1
C 4.1774859556 -0.2441232619 -0.0596172251
N 2.7460367204 -0.4203735555 0.0532175726
C 2.3206838748 -1.7570810887 0.3959721873
C 1.9166975129 0.6083056904 -0.1566034495
O 2.3175011482 1.7388286484 -0.4529118251
C 0.4491470083 0.3393674161 -0.017179362
C -0.1867234368 0.5282524095 1.2067516356
C -1.5486349413 0.3495582029 1.3179898375
C -2.3085316473 -0.0152331862 0.2043316648
C -1.6768481975 -0.1942148332 -1.0218013127
C -0.3078935783 -0.0120256313 -1.1249571425
O -3.6433867253 -0.1679234448 0.4235811372
C -4.4752157451 -0.5291517087 -0.6638879261
H 4.3756701808 0.794437287 -0.3166319494
H 4.5733127553 -0.8955046015 -0.8394249948
H 4.6584347794 -0.4841710799 0.8890619107
H 2.7539483373 -2.0439446547 1.3555042098
H 2.6650156925 -2.4571291704 -0.3671097581
H 1.2378993697 -1.803606483 0.4636037991
H 0.3917303973 0.8178775337 2.0707325273
H -2.0547942925 0.4904447383 2.2593797388
H -2.2351208361 -0.4694169717 -1.9013777394
H 0.1757746519 -0.1446266322 -2.0811017819
H -4.1915509169 -1.503003928 -1.0705599614
H -4.4441501028 0.2268855211 -1.4524207504
H -5.4788481844 -0.5837557297 -0.2488724741
*
