  15
        -15.78037163
 C         -2.0686187115        0.0706461546       -0.0000086355
 C         -0.7065266061        0.6857241381        0.0001300360
 C          0.4511893669        0.0374227309       -0.0000391675
 C          1.7612296904        0.7680182250       -0.0000159783
 C          0.5565365025       -1.4643857626       -0.0000112525
 H         -2.6283556602        0.4041290254        0.8742283775
 H         -2.6218212307        0.3899511845       -0.8837439067
 H         -2.0240747074       -1.0137507899        0.0088344364
 H         -0.7029325590        1.7686209722       -0.0001872854
 H          1.6134604532        1.8449668381        0.0007591278
 H          2.3440910060        0.4953148441        0.8799048800
 H          2.3434420439        0.4965351184       -0.8807548349
 H          0.0708151387       -1.8875990987       -0.8782718539
 H          1.5987722595       -1.7724854942       -0.0054000103
 H          0.0803657145       -1.8866881685        0.8839756153
