  15
        -15.78037163
 C         -2.0686187115        0.0706461546       -0.0000086355
 C         -0.7065266061        0.6857241381        0.0001300360
 C          0.4511893669        0.0374227309       -0.0000391675
 C          1.7612296904        0.7680182250       -0.0000159783
 C          0.5565365025       -1.4643857626       -0.0000112525
 H         -2.6283556602        0.4041290254        0.8742283775
 H         -2.6218212307        0.3899511845       -0.8837439067
 H         -2.0240747074       -1.0137507899        0.0088344364
 H         -0.7029325590        1.7686209722       -0.0001872854
 H          1.6134604532        1.8449668381        0.0007591278
 H          2.3440910060        0.4953148441        0.8799048800
 H          2.3434420439        0.4965351184       -0.8807548349
 H          0.0708151387       -1.8875990987       -0.8782718539
 H          1.5987722595       -1.7724854942       -0.0054000103
 H          0.0803657145       -1.8866881685        0.8839756153
  15
        -15.78035221
 C         -2.0413846893        0.0333547837        0.0000541969
 C         -0.7036564471        0.7055827981        0.0001064396
 C          0.4536944077        0.0547433720       -0.0002855197
 C          1.7731888494        0.7648120833        0.0000975814
 C          0.5140522031       -1.4463345182        0.0000333376
 H         -2.1623980414       -0.5852360879       -0.8900638100
 H         -2.1452148696       -0.6207304135        0.8664058173
 H         -2.8439583096        0.7651485370        0.0221922620
 H         -0.7076240342        1.7865991511       -0.0006651118
 H          2.3506353320        0.4860294011        0.8817097146
 H          2.3531334573        0.4828695014       -0.8788291747
 H          1.6397457504        1.8436414703       -0.0019832309
 H          1.5432634073       -1.7947296868       -0.0101290748
 H          0.0198547919       -1.8494893165        0.8838896304
 H          0.0014892711       -1.8506795681       -0.8725989497
  15
        -15.78034493
 C         -2.0971858955        0.1062265848       -0.0010005979
 C         -0.7133671362        0.6708175816        0.0015157486
 C          0.4428698637        0.0198231741        0.0021403794
 C          1.7490828834        0.7621849468       -0.0011918113
 C          0.6037361279       -1.4715755291        0.0000107741
 H         -2.6358582645        0.4553325414       -0.8823697363
 H         -2.1067699246       -0.9791238345       -0.0010100301
 H         -2.6413430554        0.4574090141        0.8762193960
 H         -0.6890135566        1.7544165355        0.0015543198
 H          2.3263533203        0.5151405703        0.8898032948
 H          2.3435217225        0.4756655214       -0.8685734708
 H          1.5938391924        1.8375715792       -0.0261918858
 H         -0.3439814470       -1.9926112430        0.0852339981
 H          1.0899159824       -1.7899635167       -0.9224599670
 H          1.2404700580       -1.7762851710        0.8302227601
  15
        -15.78029840
 C         -2.0575075953        0.0545507782        0.0013238215
 C         -0.7052582516        0.6946404671       -0.0032747737
 C          0.4521122647        0.0450198454       -0.0001777939
 C          1.7664634398        0.7664367014        0.0005929259
 C          0.5386504740       -1.4567629942       -0.0011891301
 H         -2.0370064601       -0.9212626928       -0.4773409969
 H         -2.4105417265       -0.0787008092        1.0254609275
 H         -2.7764556551        0.6842619276       -0.5185015930
 H         -0.7040000976        1.7765668846        0.0111289968
 H          2.3560193786        0.4745461562       -0.8685363614
 H          1.6251705575        1.8440518459       -0.0203714240
 H          2.3384650583        0.5069790714        0.8917493783
 H          1.5714114029       -1.7814314652        0.0936745106
 H         -0.0337173606       -1.8778301926        0.8237025019
 H          0.1366703381       -1.8651609892       -0.9284930974
  15
        -15.78020649
 C         -2.0625578181        0.0560855863       -0.0022903383
 C         -0.7071826772        0.6967959729        0.0026112789
 C          0.4485382017        0.0443912901        0.0071450168
 C          1.7658157545        0.7614504783       -0.0033640546
 C          0.5453438710       -1.4536360027       -0.0005787577
 H         -2.1427609225       -0.6830435576       -0.7981668383
 H         -2.2556838504       -0.4504265586        0.9444290919
 H         -2.8369469316        0.8041728004       -0.1488023948
 H         -0.6977982517        1.7784048151        0.0069168839
 H          2.3215241889        0.5453458881        0.9094166461
 H          2.3700689224        0.4246938413       -0.8455699090
 H          1.6290531589        1.8370227169       -0.0791522318
 H         -0.3408253056       -1.9126089812        0.4282733871
 H          0.6561827240       -1.8165042136       -1.0233916813
 H          1.4168633050       -1.7793673556        0.5640622304
  15
        -15.78016065
 C         -2.0668538727        0.0658951492       -0.0051020481
 C         -0.7073330340        0.6908578865        0.0087273931
 C          0.4494556202        0.0394151675        0.0105107905
 C          1.7625210027        0.7646660379       -0.0055768729
 C          0.5539653310       -1.4588116094        0.0009952146
 H         -2.0907803847       -0.8543005052        0.5750912537
 H         -2.8052732166        0.7526475537        0.4020643569
 H         -2.3619067676       -0.1790093412       -1.0266615742
 H         -0.6963481281        1.7728118171       -0.0082500265
 H          2.3565506113        0.4460215513       -0.8620144130
 H          1.6193575839        1.8407911461       -0.0609747626
 H          2.3315541892        0.5356230378        0.8957447515
 H         -0.2188270945       -1.9165734502        0.6144378919
 H          0.4382383157       -1.8372507653       -1.0151324954
 H          1.5256888135       -1.7765501405        0.3718356813
  15
        -15.77847943
 C         -2.0712888398        0.0701406429        0.0004364770
 C         -0.7048723165        0.6883077805       -0.0005011940
 C          0.4482622272        0.0305034192       -0.0006668734
 C          1.7609002911        0.7708145813        0.0004309239
 C          0.5562503475       -1.4642598747       -0.0000618651
 H         -2.8363161391        0.8417547527        0.0019977551
 H         -2.2190748687       -0.5534871211       -0.8812287492
 H         -2.2173365067       -0.5552261387        0.8811488350
 H         -0.6793101394        1.7701081011       -0.0008845797
 H          1.8352701511        1.4252445698       -0.8668373729
 H          1.8520889821        1.3910949496        0.8910517134
 H          2.5967878051        0.0766577222       -0.0205892883
 H          1.1110818917       -1.7960862721        0.8778520022
 H         -0.4185903038       -1.9410310916        0.0041758022
 H          1.1034849662       -1.7971673445       -0.8823658808
  15
        -15.77785960
 C         -2.0638836917        0.0744314212        0.0013579785
 C         -0.6969716927        0.6776363439       -0.0019502554
 C          0.4592984125        0.0243475078       -0.0017998366
 C          1.7575014230        0.7898090285        0.0012864827
 C          0.5438307821       -1.4779255754       -0.0002619706
 H         -2.6110456200        0.3971033582        0.8877239817
 H         -2.6242026277        0.4148641376       -0.8699256603
 H         -2.0298392061       -1.0102681660       -0.0088325707
 H         -0.6831131202        1.7607441712       -0.0018933549
 H          1.8250789896        1.4260203698        0.8829993104
 H          2.6132421357        0.1204117076       -0.0014113138
 H          1.8249895595        1.4335634570       -0.8749017157
 H          0.0930322029       -1.8881968452        0.9030234918
 H          0.0171487663       -1.8961333290       -0.8571895457
 H          1.5773874338       -1.8103521370       -0.0432951136
