! pbe def2-sv(p) def2/J RI DEFGRID1 loosescf d4 GCP(DFT/SV(P)) printgap
%output
    printlevel normal
end
* xyz 0 1
C 1.8347528274 0.9020707876 -0.9747615152
C 1.4497448541 -0.232330882 -0.0253550142
H 2.191576573 -1.0333292727 -0.1433332216
C 0.0670949468 -0.8575267389 -0.3174828071
C -1.1718097289 -0.1329177038 0.2293971385
C -1.5434369695 1.1214360095 -0.5596773311
C -2.3562030663 -1.102039901 0.2088897654
O 1.5897594036 0.1592773155 1.3296856776
H 1.7630630893 0.5657456229 -2.00441601
H 1.1905476576 1.7659854427 -0.8424404571
H 2.8603065786 1.2057900437 -0.7766766995
H -0.028291027 -0.9807258217 -1.3972011152
H 0.0766708804 -1.8545078041 0.129295683
H -0.9832934759 0.1402206288 1.2734046393
H -1.6279513372 0.8898241282 -1.6190265628
H -0.8115236453 1.9134326652 -0.4373796285
H -2.5028715941 1.5026418371 -0.2160947744
H -3.2467598169 -0.6232609192 0.6092910232
H -2.5657546161 -1.4196861576 -0.8103070125
H -2.1452750303 -1.9848089149 0.8079813774
H 1.0890135102 0.9749605468 1.4677133755
*
