! pbe def2-sv(p) def2/J RI DEFGRID1 loosescf d4 GCP(DFT/SV(P)) printgap
%output
    printlevel normal
end
* xyz 0 1
C -2.1669492235 0.0188230394 -1.2196288467
C -2.2266100698 0.2776187834 0.2808173535
C -1.2202140014 -0.5114441514 1.1249546972
C 0.2840000849 -0.3096266467 0.8743265308
C 0.863498554 -1.1759616205 -0.2542772324
C 2.1570327777 -0.4592119471 -0.6244200061
C 1.7462704156 1.0117936136 -0.6075020651
C 0.7466474447 1.1285323424 0.5540871591
H -1.2455347566 0.4030343294 -1.6472746763
H -2.2358107299 -1.0468842254 -1.426980816
H -2.9994915057 0.5159724897 -1.7137180971
H -2.1099236724 1.3468748339 0.4674231389
H -3.2224061417 0.0031500383 0.6396613533
H -1.4232840744 -0.2578571789 2.1690919953
H -1.4292667006 -1.5778810716 1.0069729927
H 0.7875574642 -0.6230982163 1.7962533334
H 1.0311122617 -2.2019848582 0.0728698812
H 0.1950153301 -1.1969802312 -1.1120681251
H 2.9164799345 -0.6448636242 0.1372017982
H 2.5527103484 -0.7715396666 -1.5899508423
H 2.598507147 1.6788642844 -0.4850727267
H 1.2577476019 1.2624268068 -1.5505505787
H 1.2228481338 1.5716847445 1.4288649141
H -0.0851010247 1.7711812426 0.2776574293
*
