  23
        -23.15948432
 C          3.4637378920        0.2554749628       -0.1453421515
 C          2.2075338917       -0.4969610277        0.2762742842
 C          0.9377746270        0.1990302852       -0.2091404305
 C         -0.3200852476       -0.5514539308        0.2229769083
 C         -1.6177057761        0.0330308216       -0.3459521217
 C         -2.7849068964       -0.9068723741       -0.0473329064
 C         -1.9122715811        1.4196437801        0.2213973893
 H          3.4611004957        1.2630363587        0.2652150988
 H          4.3553614621       -0.2568058949        0.2089592231
 H          3.5181985398        0.3290395262       -1.2294678109
 H          2.1805619031       -0.5759144385        1.3656558199
 H          2.2406389801       -1.5118031733       -0.1272388282
 H          0.9204089734        1.2152860416        0.1880934834
 H          0.9603908192        0.2679176665       -1.2996404359
 H         -0.2333916589       -1.5899214032       -0.1076436420
 H         -0.3797236543       -0.5591548133        1.3141352656
 H         -1.5108291887        0.1173769633       -1.4337088640
 H         -2.6074616563       -1.8911095344       -0.4752437192
 H         -2.9142675294       -1.0187125892        1.0272859333
 H         -3.7096315736       -0.5143147388       -0.4644779477
 H         -1.1381765150        2.1300680915       -0.0555952350
 H         -1.9727170890        1.3787299519        1.3071222483
 H         -2.8615405500        1.7895719715       -0.1602770117
  23
        -23.15867935
 C          2.8721776050       -0.1319267136        0.8662354478
 C          2.3305657919       -0.2466213797       -0.5539389946
 C          0.9295959351        0.3460334083       -0.7116011448
 C         -0.1360904683       -0.4275317279        0.0634036911
 C         -1.5697175747       -0.0164377994       -0.2897661644
 C         -2.5619886611       -0.9662964413        0.3796568831
 C         -1.8653829027        1.4216207669        0.1296828104
 H          2.8580246801        0.9049427807        1.1956819678
 H          2.2778825151       -0.7220341563        1.5587730624
 H          3.8981687781       -0.4909669448        0.9096890466
 H          2.3140192404       -1.2978357956       -0.8514858927
 H          3.0083153631        0.2769982953       -1.2329240604
 H          0.9491370343        1.3857769178       -0.3805309905
 H          0.6663090862        0.3392536351       -1.7726761000
 H         -0.0180609380       -1.4923615012       -0.1543585279
 H          0.0134006484       -0.2893851715        1.1356984622
 H         -1.6952618305       -0.0948071748       -1.3761280225
 H         -3.5836966563       -0.7007560657        0.1172473285
 H         -2.3846077273       -1.9930415387        0.0670203105
 H         -2.4625070616       -0.9156029916        1.4621035034
 H         -2.9025420652        1.6715361843       -0.0837809478
 H         -1.2321962964        2.1240012568       -0.4054944278
 H         -1.6963713355        1.5464416110        1.1974231106
  23
        -23.15861564
 C          3.2287399686        0.2991614763       -0.3043265749
 C          1.7987626393       -0.1968531616       -0.4833845318
 C          0.9874640349       -0.0444231456        0.8013948871
 C         -0.4082674342       -0.6651468739        0.7232985956
 C         -1.3464499284       -0.0541538894       -0.3241718506
 C         -2.6657401570       -0.8256346380       -0.3351293415
 C         -1.6135919920        1.4249096614       -0.0565715763
 H          3.7916255816        0.1906804650       -1.2287158059
 H          3.2349876147        1.3495805270       -0.0204290323
 H          3.7356016199       -0.2670998215        0.4743390326
 H          1.8138115787       -1.2491102986       -0.7771952444
 H          1.3260047089        0.3673612580       -1.2889849663
 H          1.5294513708       -0.5354070882        1.6143629972
 H          0.9115322469        1.0134903785        1.0581592623
 H         -0.3006581888       -1.7317601032        0.5086014817
 H         -0.8822178955       -0.5751310465        1.7045249833
 H         -0.8870022373       -0.1542419084       -1.3127262644
 H         -3.1602059119       -0.7446767999        0.6309112436
 H         -3.3348106894       -0.4300587985       -1.0961540151
 H         -2.4945589079       -1.8792906458       -0.5447756296
 H         -0.7053732106        2.0132039068       -0.1554613298
 H         -2.0080908498        1.5627029132        0.9482607712
 H         -2.3426890160        1.8102773491       -0.7662776572
  23
        -23.15841776
 C          2.9396231207       -0.8749867325       -0.3109985667
 C          2.3302321096        0.3176060471        0.4170783980
 C          0.9528769956        0.7161730192       -0.1163550257
 C         -0.1324859181       -0.3101564425        0.2023312983
 C         -1.5127842129        0.0652541468       -0.3495930211
 C         -2.4613736488       -1.1270268724       -0.2307149809
 C         -2.1080556154        1.2704129415        0.3748181652
 H          3.9466941086       -1.0650245956        0.0538149626
 H          2.3496868121       -1.7742453420       -0.1546228591
 H          2.9938285484       -0.6800057774       -1.3800459814
 H          3.0035003572        1.1720422097        0.3115965352
 H          2.2512146119        0.0906675922        1.4828038206
 H          0.6812943021        1.6772096811        0.3242708202
 H          1.0136567571        0.8529366048       -1.1989122158
 H          0.1544635147       -1.2725878807       -0.2251988090
 H         -0.2028231752       -0.4364450884        1.2856008083
 H         -1.4035693928        0.3158127871       -1.4112319962
 H         -2.5811767399       -1.4117876243        0.8126986421
 H         -3.4413672155       -0.8787889924       -0.6323263189
 H         -2.0753658885       -1.9844143329       -0.7778448457
 H         -3.1014364549        1.4897659406       -0.0109066038
 H         -1.4920815803        2.1553842985        0.2398500472
 H         -2.1922446580        1.0669293505        1.4405418642
  23
        -23.15835808
 C          3.2522014312       -0.0396497289        0.6174342916
 C          2.1538044500       -0.2722407061       -0.4129171438
 C          0.7661184189       -0.0018673724        0.1651022420
 C         -0.3266569855       -0.2369610493       -0.8756282663
 C         -1.7625536481        0.0066096700       -0.3887056281
 C         -2.1549942874       -0.9436381048        0.7407518540
 C         -1.9874081721        1.4566625719        0.0349493246
 H          4.2312166849       -0.2366131763        0.1864864721
 H          3.2333135160        0.9896717453        0.9695669909
 H          3.1165426092       -0.6960145933        1.4745466000
 H          2.2027335385       -1.3045058089       -0.7678186384
 H          2.3203901608        0.3802323260       -1.2734205404
 H          0.6085803299       -0.6576547384        1.0228353312
 H          0.7269439624        1.0301972719        0.5170529994
 H         -0.1381702058        0.4154132952       -1.7326217849
 H         -0.2538684972       -1.2684195145       -1.2310868070
 H         -2.4206539513       -0.1985858699       -1.2425072906
 H         -1.5965625605       -0.7210535536        1.6464591728
 H         -3.2147052772       -0.8427178702        0.9653647640
 H         -1.9618378954       -1.9762618568        0.4585275091
 H         -1.6714827976        2.1397568457       -0.7504325249
 H         -1.4309467034        1.6868993738        0.9399598860
 H         -3.0425734844        1.6300882773        0.2353526260
  23
        -23.15778016
 C          2.5191800585       -0.6418195263       -0.7656471226
 C          1.9235774371        0.5911404324       -0.0963381114
 C          0.9991717379        0.2548316910        1.0749269851
 C         -0.2256495911       -0.5887195721        0.7135694023
 C         -1.1593549135        0.0182490661       -0.3396487688
 C         -2.2900676754       -0.9643885035       -0.6425988311
 C         -1.7415053769        1.3535061051        0.1172441692
 H          3.2456530141       -0.3478689215       -1.5202705652
 H          3.0223038318       -1.2676671234       -0.0313357455
 H          1.7479634118       -1.2332894586       -1.2520879117
 H          1.3828341508        1.1817609552       -0.8377851486
 H          2.7376186126        1.2144406282        0.2830779421
 H          1.5752706625       -0.2946049281        1.8245757053
 H          0.6721935370        1.1868579510        1.5400777927
 H          0.1089063947       -1.5657264311        0.3590139344
 H         -0.8010369588       -0.7577826501        1.6280396285
 H         -0.5957624617        0.1805427680       -1.2639616606
 H         -2.9467571947       -0.5673155682       -1.4136475314
 H         -1.8924374677       -1.9159437031       -0.9893476828
 H         -2.8832991693       -1.1471039622        0.2512651438
 H         -2.4561229477        1.7235043000       -0.6150569949
 H         -0.9628917851        2.1022826368        0.2357242683
 H         -2.2565479300        1.2362128317        1.0687401003
  23
        -23.15776967
 C          2.6393694579        0.5708570665       -0.3879614408
 C          1.8336806527       -0.7214056944       -0.4508608490
 C          0.9018077245       -0.9101764250        0.7473219005
 C         -0.1737443762        0.1665652481        0.9084993755
 C         -1.1434742568        0.3137169716       -0.2694220635
 C         -1.9508390170       -0.9607473032       -0.5032321240
 C         -2.0886157883        1.4856938218       -0.0067196666
 H          3.1848851037        0.6334707623        0.5514762901
 H          3.3577031105        0.6081538246       -1.2041521097
 H          1.9915312037        1.4397211247       -0.4689899334
 H          2.5257793430       -1.5671803548       -0.4779816488
 H          1.2571235362       -0.7457702509       -1.3771130809
 H          0.4250043781       -1.8890776294        0.6681126634
 H          1.5068614130       -0.9191724751        1.6581133515
 H         -0.7543807483       -0.0668049865        1.8053048275
 H          0.3118562103        1.1289985826        1.0814587716
 H         -0.5720090417        0.5370290841       -1.1759420856
 H         -2.4831058012       -1.2430107433        0.4030871180
 H         -2.6815155287       -0.8047880683       -1.2942206293
 H         -1.3075147617       -1.7856995839       -0.7973739642
 H         -2.7690443821        1.6246305143       -0.8440745224
 H         -1.5296979623        2.4082322816        0.1357472765
 H         -2.6801769258        1.3026095541        0.8881743625
  23
        -23.15738313
 C          2.9798770435        0.3525253524       -0.3662861629
 C          2.1513914419       -0.6478097768        0.4317056802
 C          0.7017631282       -0.2050407040        0.6389107103
 C         -0.0994640228       -0.1829197846       -0.6617269789
 C         -1.5968195867        0.1185599502       -0.4996541374
 C         -2.3254002656       -0.9712156910        0.2843740639
 C         -1.8398824888        1.4848576535        0.1381061708
 H          2.9425606315        1.3348030659        0.1002578126
 H          4.0189517942        0.0331636879       -0.4087884422
 H          2.6124419766        0.4407746972       -1.3852642561
 H          2.6156526748       -0.7838981559        1.4118584410
 H          2.1646872991       -1.6155319162       -0.0754801587
 H          0.2317112014       -0.8966044540        1.3401492201
 H          0.6991796048        0.7878018547        1.0917341776
 H          0.3250784966        0.5697188509       -1.3290797573
 H          0.0044747568       -1.1543405385       -1.1527504237
 H         -2.0215924884        0.1402526799       -1.5113457655
 H         -3.3990692576       -0.7974195739        0.2585954801
 H         -2.1269916394       -1.9510427030       -0.1444529501
 H         -2.0118473629       -0.9786619759        1.3252538418
 H         -2.8988389257        1.7323481999        0.1052139851
 H         -1.2908811782        2.2596388048       -0.3926298356
 H         -1.5254730503        1.4872696032        1.1787021658
  23
        -23.15734685
 C          2.8517867471       -0.9019079518       -0.2973794857
 C          2.2435424150        0.3444593840        0.3355943148
 C          0.7421937270        0.2158027020        0.6012213144
 C         -0.0845294631        0.2176321861       -0.6833725393
 C         -1.6034967110        0.1123637985       -0.4819180175
 C         -2.0037485499       -1.2106922299        0.1679887005
 C         -2.1656694162        1.2873575936        0.3156707394
 H          3.9288569274       -0.7872197109       -0.3981100323
 H          2.6570163847       -1.7754671389        0.3214324652
 H          2.4383042652       -1.0819454765       -1.2862307262
 H          2.4238088166        1.2057623231       -0.3120441703
 H          2.7495831847        0.5354813917        1.2853598750
 H          0.5627587322       -0.7056713764        1.1572190236
 H          0.4321723250        1.0537683952        1.2279096184
 H          0.1280591885        1.1391658038       -1.2322521607
 H          0.2288804401       -0.6180641540       -1.3120989389
 H         -2.0531398818        0.1425863135       -1.4825908059
 H         -3.0863271060       -1.3186261557        0.1653619853
 H         -1.5748899496       -2.0503894054       -0.3745764945
 H         -1.6639068935       -1.2544812135        1.1996478071
 H         -3.2532614647        1.2594045536        0.3083717405
 H         -1.8448010823        2.2331883332       -0.1152942306
 H         -1.8357151889        1.2477273192        1.3507265015
  23
        -23.15668952
 C          3.2187331793        0.5452888237       -0.0308679685
 C          1.8846975258        0.0572549738        0.5212918021
 C          0.9841398522       -0.4915216907       -0.5847351565
 C         -0.3880112596       -0.9602187642       -0.0788091721
 C         -1.5334125276        0.0248314543       -0.3424620312
 C         -2.8619915465       -0.6079623945        0.0694273540
 C         -1.3410044465        1.3480532484        0.3931101418
 H          3.8521575845        0.9199206766        0.7700597338
 H          3.7436872603       -0.2647131454       -0.5331599736
 H          3.0640240796        1.3477893753       -0.7493292942
 H          1.3853747244        0.8793765370        1.0353608878
 H          2.0658884372       -0.7303602211        1.2567245738
 H          0.8489979682        0.2723395332       -1.3536085702
 H          1.5023280124       -1.3303298106       -1.0554925492
 H         -0.6449642726       -1.9026021751       -0.5679406187
 H         -0.3308139793       -1.1589587559        0.9937503818
 H         -1.5686982189        0.2287091029       -1.4192957284
 H         -3.6893387840        0.0655797227       -0.1428381506
 H         -3.0309931283       -1.5375207979       -0.4698128323
 H         -2.8626037454       -0.8254751785        1.1356421988
 H         -1.2492610228        1.1765210027        1.4637898047
 H         -2.1958576794        1.9999339924        0.2238630745
 H         -0.4508003210        1.8640754963        0.0444170969
  23
        -23.15667199
 C          3.1884131212       -0.4403153172       -0.5016043754
 C          1.7048762312       -0.6383900667       -0.2131558917
 C          1.1109699432        0.5636645410        0.5168195880
 C         -0.3479977862        0.3812368081        0.9392899040
 C         -1.3388199030        0.2692887236       -0.2340453782
 C         -1.7371388452       -1.1819091591       -0.4978985302
 C         -2.5940815810        1.0979228715        0.0380449468
 H          3.5956194503       -1.3010291949       -1.0274369927
 H          3.3418954826        0.4426187850       -1.1186193663
 H          3.7442868661       -0.3096977065        0.4245897734
 H          1.5723847067       -1.5334210967        0.3994052119
 H          1.1779010924       -0.7942018853       -1.1558697340
 H          1.7073725923        0.7543865234        1.4132800781
 H          1.1913431156        1.4466892578       -0.1223521194
 H         -0.4299182289       -0.5054757409        1.5713841072
 H         -0.6225351908        1.2417685233        1.5536240539
 H         -0.8603907354        0.6681513446       -1.1351535722
 H         -0.8644920017       -1.8031765076       -0.6785185080
 H         -2.2733771716       -1.5852623350        0.3591082826
 H         -2.3887633827       -1.2457715514       -1.3672224579
 H         -3.0895690968        0.7483195522        0.9416570714
 H         -3.2945345951        1.0137341436       -0.7902590055
 H         -2.3430226805        2.1486688140        0.1669251842
  23
        -23.15612180
 C          3.3898688324        0.1788787563       -0.3289410259
 C          2.0961555370       -0.5885916908       -0.0853474820
 C          0.9661243776        0.3322074038        0.3725886060
 C         -0.3520759765       -0.4257793103        0.6018269298
 C         -1.4875846855        0.0218499231       -0.3258092543
 C         -2.6434416320       -0.9749862477       -0.2660546067
 C         -1.9855723654        1.4160406542        0.0476407911
 H          3.7135647844        0.6791004132        0.5815162262
 H          4.1812922096       -0.4944294607       -0.6502134611
 H          3.2470121580        0.9330898039       -1.1001261741
 H          2.2683196196       -1.3548753606        0.6741800904
 H          1.7964257495       -1.0941471057       -1.0063086466
 H          1.2750709601        0.8370194446        1.2899117158
 H          0.8226564047        1.1031044349       -0.3869881318
 H         -0.1780232802       -1.4924396416        0.4446529905
 H         -0.6818017406       -0.3039678237        1.6354548938
 H         -1.1059416458        0.0469851084       -1.3529913173
 H         -3.4542125064       -0.6602808099       -0.9193613382
 H         -2.3167797957       -1.9645202058       -0.5783067698
 H         -3.0294775120       -1.0458778033        0.7488529772
 H         -1.1760553756        2.1411703078        0.0251798289
 H         -2.4077804404        1.4070725313        1.0505319485
 H         -2.7573326558        1.7442049403       -0.6455100211
  23
        -23.15608999
 C          2.3141180252        0.6391883096       -0.7577398691
 C          2.2529277124       -0.4564564841        0.2993225174
 C          0.8859273460       -1.1368575109        0.3963673770
 C         -0.2357481917       -0.2031697635        0.8738196496
 C         -1.1413057276        0.3188534989       -0.2496041192
 C         -2.1009308747       -0.7684090847       -0.7282625904
 C         -1.9344106937        1.5319566329        0.2331966481
 H          2.0408160434        0.2428476163       -1.7335708707
 H          1.6384212103        1.4543442437       -0.5127067050
 H          3.3223154899        1.0431633580       -0.8238407448
 H          2.5126987798       -0.0336115956        1.2729613469
 H          3.0016195580       -1.2169878802        0.0625527150
 H          0.6311565966       -1.5545475486       -0.5791904776
 H          0.9785391309       -1.9739078114        1.0920162794
 H         -0.8651404680       -0.7262168161        1.5974852007
 H          0.2115105466        0.6455452827        1.3955033955
 H         -0.5181996663        0.6271886915       -1.0945485181
 H         -2.7030301145       -0.4070097862       -1.5592751004
 H         -1.5600570097       -1.6515593185       -1.0593362167
 H         -2.7709397531       -1.0616486546        0.0777465747
 H         -2.5930232248        1.8963278825       -0.5522326573
 H         -1.2667296473        2.3412610565        0.5214772576
 H         -2.5435148715        1.2673171445        1.0953420347
  23
        -23.15591073
 C          2.8664100160       -0.3257938774        0.6850197229
 C          1.9551710408        0.6508601819       -0.0495709978
 C          0.9601235317       -0.0590749699       -0.9707557277
 C         -0.1890856116       -0.7560803245       -0.2270424676
 C         -1.5246108347       -0.0053253024       -0.2941860517
 C         -2.6306138375       -0.8590521902        0.3245370486
 C         -1.4578411151        1.3462381781        0.4118513377
 H          2.2889916455       -1.0138921857        1.2978039181
 H          3.4481429027       -0.9101211088       -0.0249974479
 H          3.5557876414        0.2107351383        1.3333412997
 H          2.5740817740        1.3228358905       -0.6494720491
 H          1.4161812637        1.2594724945        0.6777065842
 H          0.5427690155        0.6651680528       -1.6736712626
 H          1.5123691087       -0.7935630508       -1.5612632789
 H         -0.3431132802       -1.7493974718       -0.6542797089
 H          0.0796709422       -0.8947228739        0.8215157540
 H         -1.7709127984        0.1653980911       -1.3489836194
 H         -2.7157918530       -1.8135349963       -0.1904093952
 H         -2.4164164784       -1.0537027039        1.3735969665
 H         -3.5893571399       -0.3492183859        0.2602689202
 H         -0.7253596787        1.9973743232       -0.0574142364
 H         -1.1873884356        1.2138459848        1.4576591668
 H         -2.4259929183        1.8413783283        0.3703746022
  23
        -23.15582858
 C          2.4666910964       -0.4433639045       -1.0119972351
 C          2.3235748338       -0.1235191660        0.4713144602
 C          0.9918578843        0.5556912378        0.7961758391
 C         -0.2157233857       -0.3858249606        0.6564176414
 C         -1.2641025794        0.1003438764       -0.3506284734
 C         -2.2622452203       -1.0150867012       -0.6553177721
 C         -2.0022399056        1.3290325842        0.1752064851
 H          3.4189399009       -0.9316290259       -1.2069830378
 H          1.6705002782       -1.1032615180       -1.3471403604
 H          2.4230259828        0.4700187792       -1.6016138213
 H          3.1402972888        0.5384099758        0.7698219913
 H          2.4144983191       -1.0419589704        1.0558858518
 H          1.0394899106        0.9465444720        1.8143263570
 H          0.8742909361        1.4104375963        0.1272078219
 H          0.1330353603       -1.3716593984        0.3433898956
 H         -0.7019907053       -0.5149118130        1.6256799968
 H         -0.7521717976        0.3694449933       -1.2815749190
 H         -2.7686146470       -1.3291064806        0.2553662760
 H         -3.0132670343       -0.6736853810       -1.3643474281
 H         -1.7577117824       -1.8796329603       -1.0819316840
 H         -1.3085166596        2.1331435426        0.4071461006
 H         -2.5499610740        1.0787666888        1.0816745189
 H         -2.7124530904        1.6932400348       -0.5642100932
  23
        -23.15577351
 C          2.3211464369        0.6633364982       -0.8783448184
 C          2.0204214924       -0.5449013031        0.0026647748
 C          1.0175625722       -0.2486277680        1.1274392122
 C         -0.4127473716       -0.7090348156        0.8349283558
 C         -1.1152465025       -0.0142447743       -0.3362111542
 C         -2.4481090118       -0.7080081379       -0.6163182243
 C         -1.3554933203        1.4667072486       -0.0541489982
 H          1.4228456094        1.0333964854       -1.3644614477
 H          2.7443033084        1.4699880976       -0.2827309391
 H          3.0412340221        0.3976660648       -1.6499177504
 H          2.9613502030       -0.8841288831        0.4421553570
 H          1.6415759912       -1.3610149713       -0.6160473086
 H          1.3401887235       -0.7667120548        2.0339491543
 H          1.0269649759        0.8186973543        1.3516097999
 H         -0.3907400101       -1.7840353007        0.6363143117
 H         -1.0144844320       -0.5575429692        1.7354700967
 H         -0.4911949215       -0.1090012581       -1.2300188485
 H         -3.0974952610       -0.6474156285        0.2548734189
 H         -2.9561542588       -0.2369367284       -1.4550396792
 H         -2.2945521538       -1.7580750115       -0.8560251479
 H         -1.9611416857        1.5862571158        0.8421429533
 H         -1.8816985859        1.9297135327       -0.8864944205
 H         -0.4191237809        1.9985410498        0.0907628915
  23
        -23.15577073
 C          2.4078176178       -1.1888629642        0.3507756411
 C          1.8668129899       -0.2289696389       -0.7023400822
 C          1.1817156478        0.9983187834       -0.1004532135
 C         -0.1218747619        0.7174280890        0.6509468252
 C         -1.2668719360        0.2018641612       -0.2407248373
 C         -1.4685273269       -1.3051528896       -0.0888281351
 C         -2.5737525218        0.9233566610        0.0884289789
 H          1.6045168004       -1.6064680111        0.9520854362
 H          2.9380629109       -2.0117300157       -0.1240506851
 H          3.0993316651       -0.6734343838        1.0142017290
 H          1.1710259045       -0.7550158495       -1.3577649579
 H          2.6993098836        0.1146679687       -1.3219942205
 H          1.8804214236        1.4815751451        0.5878763915
 H          0.9712638267        1.7093965467       -0.9038107225
 H          0.0640183796        0.0070546106        1.4572476989
 H         -0.4328090937        1.6545320366        1.1185825314
 H         -1.0191439112        0.4147668510       -1.2865432052
 H         -2.2529782979       -1.6530601603       -0.7583150888
 H         -0.5580881229       -1.8508788512       -0.3201421463
 H         -1.7624817047       -1.5442613175        0.9317090022
 H         -3.3820693216        0.5572594123       -0.5413476692
 H         -2.4744081180        1.9945965993       -0.0730561293
 H         -2.8477035706        0.7550224105        1.1281516995
  23
        -23.15576594
 C          2.4001066602       -1.1776258587        0.3909775458
 C          1.8671519242       -0.2580762861       -0.7015318638
 C          1.1823856266        0.9936421364       -0.1518457659
 C         -0.1176786967        0.7476791992        0.6178795635
 C         -1.2712098842        0.2005414990       -0.2430258843
 C         -1.4560552570       -1.3046821337       -0.0554501948
 C         -2.5794954951        0.9156967622        0.0949765838
 H          2.9297558268       -2.0202672050       -0.0485813447
 H          3.0902936820       -0.6385886505        1.0368248446
 H          1.5927009985       -1.5687261953        1.0044527019
 H          1.1739021174       -0.8070374541       -1.3406202876
 H          2.7040210998        0.0595936558       -1.3291951363
 H          1.8836767144        1.5075197127        0.5112770302
 H          0.9683511334        1.6680611200       -0.9853639813
 H          0.0701667262        0.0711839816        1.4523848418
 H         -0.4225474808        1.7049723686        1.0472221470
 H         -1.0433633072        0.3937661930       -1.2972446488
 H         -0.5456151737       -1.8480594957       -0.2915794208
 H         -1.7297634533       -1.5244695507        0.9750377157
 H         -2.2493728796       -1.6731338951       -0.7031938997
 H         -3.3962483708        0.5250932650       -0.5086619715
 H         -2.4962413750        1.9837523323       -0.0945633186
 H         -2.8300791805        0.7699783242        1.1440523829
  23
        -23.15553006
 C          2.5382758003       -1.1668792954        0.1031529045
 C          1.8985306573       -0.0255170390       -0.6787602791
 C          1.1446235962        0.9624179009        0.2133657600
 C         -0.1482340459        0.4046396834        0.8116448167
 C         -1.2588431170        0.1735711110       -0.2324760913
 C         -1.6778883107       -1.2945842238       -0.2814459692
 C         -2.4732866065        1.0543875326        0.0567206875
 H          3.2144402507       -0.7769919279        0.8613135888
 H          1.7848731746       -1.7752783969        0.5969302484
 H          3.1069704744       -1.8103439862       -0.5647261825
 H          1.2200999729       -0.4365174631       -1.4285297570
 H          2.6839997708        0.5173602037       -1.2105303511
 H          1.8064300502        1.2717578072        1.0264140965
 H          0.9033640129        1.8549004060       -0.3696951864
 H          0.0711095712       -0.5287529848        1.3306928564
 H         -0.5046334151        1.1097229947        1.5654578802
 H         -0.8764524739        0.4498317989       -1.2208705114
 H         -0.8281317512       -1.9299829639       -0.5209007476
 H         -2.0820454114       -1.6060164303        0.6799718993
 H         -2.4435687073       -1.4492657069       -1.0391824478
 H         -2.1908516558        2.1049543252        0.0643292018
 H         -2.9024385703        0.8047507966        1.0252222832
 H         -3.2393738852        0.9124259193       -0.7029671855
  23
        -23.15547852
 C          3.0278252812       -0.1694791830        0.6973123555
 C          1.7817420498       -0.6727116774       -0.0217824362
 C          0.8669119211        0.4797821642       -0.4346011696
 C         -0.4082443070        0.0167067141       -1.1534735130
 C         -1.6789878246       -0.0493578849       -0.2916671851
 C         -1.5216970057       -0.9643589462        0.9197230424
 C         -2.1379968184        1.3404714582        0.1462925791
 H          3.5918485317        0.5062092205        0.0575039674
 H          2.7554635492        0.3679114281        1.6035358337
 H          3.6739631371       -0.9998357195        0.9731145067
 H          1.2432093049       -1.3603963290        0.6310947422
 H          2.0808636627       -1.2290839844       -0.9135504161
 H          0.6091579126        1.0643582972        0.4490683553
 H          1.4323393785        1.1385240484       -1.0980104185
 H         -0.6159678747        0.6941380613       -1.9851665278
 H         -0.2292290591       -0.9716367180       -1.5836379267
 H         -2.4659418234       -0.4709761124       -0.9297850168
 H         -2.4712463541       -1.0596620797        1.4428088295
 H         -1.2019423492       -1.9572514477        0.6112939910
 H         -0.7918927951       -0.5620560974        1.6174266227
 H         -1.4143445407        1.8010238362        0.8143162319
 H         -3.0875083587        1.2744845848        0.6731643544
 H         -2.2692690404        1.9900419277       -0.7163112877
  23
        -23.15494895
 C          2.2744732516        0.1909777246       -1.1018495750
 C          2.1934534812       -0.1996931907        0.3696502244
 C          0.9144912800       -0.9426086863        0.7696942679
 C         -0.3148776801       -0.0619873622        1.0183005649
 C         -1.1026973907        0.3963354649       -0.2148759634
 C         -1.7304251383       -0.7794960025       -0.9590854327
 C         -2.1958549980        1.3720259138        0.2211900793
 H          3.2693641434        0.5668629451       -1.3331486343
 H          2.0799560347       -0.6709458890       -1.7366948274
 H          1.5588008637        0.9693080580       -1.3488283211
 H          2.3014706602        0.6934424183        0.9894325026
 H          3.0421418162       -0.8528080947        0.5907949397
 H          0.6896351972       -1.7017441801        0.0198109685
 H          1.1244957299       -1.4695661008        1.7045515087
 H         -1.0058019045       -0.6174642994        1.6590725275
 H          0.0027708190        0.8216310268        1.5777916263
 H         -0.4340754852        0.9229583552       -0.8999568305
 H         -2.3356766189       -0.4199230513       -1.7886730436
 H         -0.9703792444       -1.4430102746       -1.3628040463
 H         -2.3702599472       -1.3531288121       -0.2912160310
 H         -2.7594623643        1.7256317911       -0.6394894289
 H         -1.7652508035        2.2346942905        0.7252569551
 H         -2.8872763302        0.8853829491        0.9063759045
  23
        -23.15468436
 C          3.0144516283       -0.0416660608        0.5625315754
 C          1.5449494779       -0.4172871561        0.4062587726
 C          0.9098713206        0.3087656867       -0.7774063674
 C         -0.4612265033       -0.2150991299       -1.2143964645
 C         -1.6568114915       -0.0056251463       -0.2671610991
 C         -1.7391082166       -1.0531312002        0.8422201920
 C         -1.6950257331        1.4022606020        0.3219829521
 H          3.1196918147        1.0314394521        0.7095037755
 H          3.4513033263       -0.5494699803        1.4196642779
 H          3.5784005287       -0.3208313968       -0.3251306554
 H          1.0211836498       -0.1623598062        1.3281103997
 H          1.4606536073       -1.4961662031        0.2584613874
 H          0.8458615143        1.3752598288       -0.5565316101
 H          1.5794609160        0.2001180278       -1.6359497323
 H         -0.7021486978        0.2839243618       -2.1575955288
 H         -0.3761720632       -1.2833758350       -1.4292187974
 H         -2.5550557958       -0.1303743064       -0.8860377416
 H         -2.6821168921       -0.9530707643        1.3765280955
 H         -1.6899209478       -2.0568035317        0.4257246912
 H         -0.9328227829       -0.9396438605        1.5597475135
 H         -0.8808423437        1.5509028859        1.0265886548
 H         -2.6321264637        1.5602675531        0.8518794604
 H         -1.6174476866        2.1497613712       -0.4645725047
  23
        -23.15460491
 C          2.9629547868        0.2014764285       -0.3687314317
 C          1.8320631932        0.2602878442        0.6517685493
 C          0.7365195331       -0.7725606568        0.3752838738
 C         -0.1589286481       -0.4212358555       -0.8218295717
 C         -1.5411598297        0.1513200253       -0.4701074418
 C         -2.4265298946       -0.8831571988        0.2224959529
 C         -1.4477035410        1.4237056581        0.3681119938
 H          2.5934886466        0.3869395422       -1.3744850502
 H          3.7196946273        0.9493014231       -0.1416112704
 H          3.4352204513       -0.7787532866       -0.3561917350
 H          1.4010344996        1.2622512418        0.6583934642
 H          2.2490385627        0.0736172139        1.6448100193
 H          1.2173840104       -1.7371087115        0.1980060287
 H          0.1243323160       -0.8840695020        1.2705322137
 H          0.3570434901        0.3035088494       -1.4542068918
 H         -0.3194282043       -1.3160504719       -1.4275429202
 H         -2.0220428947        0.4119569807       -1.4215534538
 H         -2.5030672669       -1.7856407841       -0.3799803631
 H         -2.0270721776       -1.1549641518        1.1964602067
 H         -3.4275912413       -0.4834128948        0.3696042703
 H         -0.8402177525        2.1714446817       -0.1371556081
 H         -1.0083888149        1.2173271582        1.3406817443
 H         -2.4395726802        1.8422784295        0.5267604230
  23
        -23.15459736
 C          2.9517251167        0.2314219052       -0.3631787569
 C          1.8214537458        0.2475452733        0.6595501426
 C          0.7396446197       -0.7932913848        0.3593939245
 C         -0.1618435438       -0.4311484561       -0.8296005663
 C         -1.5370731910        0.1527073036       -0.4687001472
 C         -2.4269689715       -0.8740232412        0.2296936824
 C         -1.4298085345        1.4242628288        0.3690044401
 H          3.7006637733        0.9798677216       -0.1132996889
 H          3.4343010906       -0.7436675015       -0.3813279457
 H          2.5797328547        0.4444710629       -1.3625082871
 H          1.3778420361        1.2431972790        0.6927392354
 H          2.2425696824        0.0405499409        1.6468351466
 H          1.2343513218       -1.7465928901        0.1601109418
 H          0.1292491966       -0.9340057575        1.2518030786
 H          0.3563848734        0.2888368329       -1.4654906133
 H         -0.3348410552       -1.3243812563       -1.4343714413
 H         -2.0214747290        0.4168635523       -1.4174247800
 H         -3.4239464155       -0.4658745276        0.3813762488
 H         -2.5139563995       -1.7767966472       -0.3708967487
 H         -2.0249693570       -1.1473413475        1.2022043160
 H         -0.8154047274        2.1658445176       -0.1369989178
 H         -0.9923073289        1.2129456737        1.3413333050
 H         -2.4173101230        1.8528568732        0.5283187505
  23
        -23.15362037
 C          2.4325416756        0.8068915723        0.1391996166
 C          1.6379051375       -0.3735072791        0.6840127067
 C          0.8251692813       -1.1041071815       -0.3856492985
 C         -0.2308779580       -0.2888496540       -1.1395729244
 C         -1.4632990356        0.2077992417       -0.3604237592
 C         -2.0241814494       -0.8503849934        0.5866057239
 C         -1.2198050769        1.5190159166        0.3857220613
 H          3.0636978422        0.4895751000       -0.6884958942
 H          1.7719780453        1.5942350027       -0.2128525414
 H          3.0704092356        1.2231962171        0.9161475021
 H          0.9853955971       -0.0356300999        1.4895049180
 H          2.3359463543       -1.0944507881        1.1192949253
 H          1.5265707821       -1.4852199780       -1.1341130033
 H          0.3468906452       -1.9714378289        0.0728281278
 H          0.2472277885        0.5694463913       -1.6147289822
 H         -0.5952709289       -0.9337493639       -1.9448240602
 H         -2.2326924088        0.4152925164       -1.1158371957
 H         -1.3470942882       -1.0275371533        1.4182511104
 H         -2.9779685253       -0.5195651001        0.9927112886
 H         -2.1850336282       -1.7891866126        0.0610390317
 H         -0.8343871447        2.2787597683       -0.2910937490
 H         -0.5135634790        1.3923320058        1.2000837144
 H         -2.1550743101        1.8847357307        0.8058636037
  23
        -23.15345690
 C          2.2042907237       -0.3429360230       -1.1987565616
 C          1.9595186014       -0.6705925521        0.2704900667
 C          1.1701264176        0.4105424750        1.0205468828
 C         -0.3443559408        0.1955280371        1.1026501368
 C         -1.1170773694        0.3582990147       -0.2180626298
 C         -1.3926816634       -0.9898026319       -0.8823076993
 C         -2.4438883406        1.0784242120        0.0253419323
 H          2.7695431630        0.5827082426       -1.2887513903
 H          2.7781075877       -1.1380672992       -1.6711870829
 H          1.2717741154       -0.2271430990       -1.7426774021
 H          2.9327472392       -0.7920532269        0.7527889950
 H          1.4389338448       -1.6263710595        0.3556724988
 H          1.5404813785        0.4542242774        2.0481844779
 H          1.3706188593        1.3831416263        0.5656162974
 H         -0.5424763329       -0.7948008420        1.5185534695
 H         -0.7294052631        0.9257054813        1.8189400224
 H         -0.5219764904        0.9751394223       -0.8993048458
 H         -0.4754001421       -1.5477370579       -1.0448912125
 H         -2.0497088807       -1.5883715407       -0.2537298111
 H         -1.8810531720       -0.8474310590       -1.8446397386
 H         -2.9998029824        1.1794646203       -0.9045794329
 H         -2.2751696859        2.0735173673        0.4314247989
 H         -3.0554148435        0.5178048029        0.7297238645
