  17
        -16.83561610
 C          0.5134946761        1.3314957462        0.5518573508
 C         -0.0000079507        0.0000035101       -0.0000106889
 C          1.0352301986       -0.5866027606       -0.9619264761
 C         -1.3161001771        0.2304850441       -0.7455905615
 C         -0.2326202204       -0.9753830646        1.1556710231
 H          0.6852608213        2.0397060721       -0.2558770920
 H         -0.2097383625        1.7652107422        1.2391108242
 H          1.4501682088        1.1883901111        1.0863324223
 H          1.9796725851       -0.7576373024       -0.4498090719
 H          1.2144490545        0.0932046819       -1.7921270256
 H          0.6881617654       -1.5353922026       -1.3654692271
 H         -1.1712557173        0.9223670476       -1.5725200159
 H         -1.6980433916       -0.7061186107       -1.1460817170
 H         -2.0662694492        0.6481024789       -0.0775011816
 H         -0.5987783665       -1.9296466786        0.7831143904
 H         -0.9666806306       -0.5755221801        1.8519056029
 H          0.6930948750       -1.1526459890        1.6989143759
