  20
        -34.24451361
 C          0.3087129039       -2.3984672469       -0.1359569106
 C         -0.0276212449       -0.9477605579        0.1594820630
 O         -1.3609534965       -0.7072827574       -0.2265633744
 C         -1.9076768309        0.4685403364        0.1556321905
 O         -1.3337880606        1.2798582200        0.8246163498
 C         -3.3055507224        0.5950690432       -0.3790881049
 O          0.7917462737       -0.0627042313       -0.5914394937
 C          1.9200323829        0.3786384482       -0.0065805483
 O          2.3206791932       -0.0286329065        1.0481499325
 C          2.5785951952        1.4284778965       -0.8539662331
 H         -0.3721863313       -3.0453514092        0.4082741893
 H          1.3293213951       -2.5974968010        0.1780045687
 H          0.2086929924       -2.5826291179       -1.2021519503
 H          0.1048014172       -0.7129307864        1.2278554835
 H         -3.8106270222       -0.3647713214       -0.3313613014
 H         -3.8465441988        1.3474703050        0.1863760661
 H         -3.2506769467        0.9033957344       -1.4213387930
 H          2.0846991550        2.3784441794       -0.6572154970
 H          3.6277183705        1.5114991225       -0.5877808799
 H          2.4605452309        1.1896853402       -1.9064124515
