  13
        -19.95414633
 C         -1.8620884509       -0.0087889151       -0.0000017677
 C         -1.1612437132       -1.2015815614       -0.0000014254
 C          0.2223197183       -1.1987278292       -0.0000001422
 C          0.9144171942        0.0061520929        0.0000022645
 C          0.2099308271        1.2061043374        0.0000000958
 C         -1.1709465268        1.1922464718       -0.0000028092
 O          2.2747871051        0.0581416532       -0.0000008180
 H         -2.9414274304       -0.0144629265        0.0000194253
 H         -1.6911006590       -2.1427759330        0.0000118355
 H          0.7699073697       -2.1327208830        0.0000006101
 H          0.7635171710        2.1315801121        0.0000041723
 H         -1.7120209314        2.1267720908        0.0000178803
 H          2.6357363719       -0.8365700320        0.0000041580
