! pbe def2-sv(p) def2/J RI DEFGRID1 loosescf d4 GCP(DFT/SV(P)) printgap
%output
    printlevel normal
end
* xyz 0 1
C 1.5344887452 -0.3279308293 1.7753356503
C 2.0800809235 -0.234511727 0.382869066
C 3.1567074978 -0.9186756922 0.0233745576
C 1.3914098634 0.664877855 -0.6267452615
H 2.175134924 1.2281640746 -1.144346706
C 0.6501824307 -0.1775424319 -1.677626226
C -0.4687639696 -0.9903259468 -1.0339355537
C -1.3522270666 -0.1082331342 -0.1995673287
C -0.932240641 1.0849617335 0.2561459101
C 0.4042315319 1.6660449953 -0.0193643876
C -2.6856106753 -0.5777331411 0.126818402
O -3.5035765997 0.0101928295 0.8142031285
H 1.9803411594 -1.1699501908 2.2985221931
H 1.77212253 0.5771083883 2.3337776387
H 0.4533848702 -0.4432608694 1.7750285305
H 3.5779525442 -0.8433873086 -0.9651545389
H 3.6638895587 -1.5819999915 0.7029762878
H 0.2230647451 0.4912654226 -2.4270330101
H 1.3497391273 -0.8482464941 -2.1761351417
H -1.0651567642 -1.4853813197 -1.8029141415
H -0.0375333674 -1.7712721041 -0.4007844738
H -1.6192972575 1.6792329058 0.8451624892
H 0.2558589101 2.4930948721 -0.7219360996
H 0.8061157472 2.1119529297 0.8914973662
H -2.9448250566 -1.5635725026 -0.3035109022
*
