! r2scan-3c def2/J RI DEFGRID2 scfconv6 printgap
%output
    printlevel normal
end
%cpcm
    smd true
    smdsolvent "water"
end
* xyz 0 1
C -1.5704097132 1.483389632 0.2771241038
C -1.1346518292 0.2565293937 -0.5203451609
C -0.1303429917 -0.6247191135 0.2425925341
H -0.2706283884 -0.4640085623 1.3163458275
C -0.352962046 -2.1039949201 -0.0675256185
C 1.3243944358 -0.2659500806 -0.1006879138
O 1.68479534 1.0679144577 0.1893005913
H -2.1920969263 2.1337747344 -0.3340133389
H -2.1487490751 1.1772839627 1.1462428219
H -0.713583076 2.0511034745 0.6303319531
H -0.6989725377 0.5649697072 -1.474030896
H -2.0218485583 -0.3357093526 -0.7525538571
H 0.3689047553 -2.7201199473 0.4630120913
H -0.2428800514 -2.2869065301 -1.134189374
H -1.3517461032 -2.407294791 0.2348272118
H 1.512957502 -0.4859307602 -1.1606278382
H 2.0011010913 -0.8802902749 0.499446157
H 1.2257970102 1.653676692 -0.4276808789
*
