  5
        -16.28305499
 C          0.0000022668        0.0000748875        0.4972552679
 Cl         0.0871196599       -1.6731953899       -0.0712040598
 Cl         1.4055079988        0.9120305130       -0.0712131962
 Cl        -1.4926282406        0.7611392690       -0.0712125773
 H         -0.0000065432        0.0000083371        1.5887344528
