  16
        -17.08601981
 C          2.1176209157        0.6328916321        0.1794302645
 C          1.2947985359       -0.5848679952       -0.2576331418
 N         -0.0714595548       -0.6246690949        0.2198341405
 C         -0.9571334509        0.3858998563       -0.3268915373
 C         -2.3848895167        0.1267036974        0.1367785075
 H          3.1404753894        0.5373089197       -0.1753844141
 H          1.6988130674        1.5508511567       -0.2263303340
 H          2.1339452207        0.7084963318        1.2656117726
 H          1.7846793815       -1.4945695352        0.1033914174
 H          1.2625051356       -0.6306213278       -1.3501822277
 H         -0.0836923855       -0.5762365874        1.2346952262
 H         -0.6689503761        1.4147908641       -0.0491010235
 H         -0.9049013782        0.3077080565       -1.4173678528
 H         -2.6810517740       -0.8841956028       -0.1289337478
 H         -2.4600336981        0.2349931407        1.2168174038
 H         -3.0676260896        0.8315335445       -0.3307501978
