  16
        -17.08601981
 C          2.1176209157        0.6328916321        0.1794302645
 C          1.2947985359       -0.5848679952       -0.2576331418
 N         -0.0714595548       -0.6246690949        0.2198341405
 C         -0.9571334509        0.3858998563       -0.3268915373
 C         -2.3848895167        0.1267036974        0.1367785075
 H          3.1404753894        0.5373089197       -0.1753844141
 H          1.6988130674        1.5508511567       -0.2263303340
 H          2.1339452207        0.7084963318        1.2656117726
 H          1.7846793815       -1.4945695352        0.1033914174
 H          1.2625051356       -0.6306213278       -1.3501822277
 H         -0.0836923855       -0.5762365874        1.2346952262
 H         -0.6689503761        1.4147908641       -0.0491010235
 H         -0.9049013782        0.3077080565       -1.4173678528
 H         -2.6810517740       -0.8841956028       -0.1289337478
 H         -2.4600336981        0.2349931407        1.2168174038
 H         -3.0676260896        0.8315335445       -0.3307501978
  16
        -17.08581977
 C          2.4230210917        0.1848073041        0.4231074705
 C          1.2302965289       -0.2059902569       -0.4377644538
 N         -0.0092966116        0.0755896621        0.2586696560
 C         -1.1939909976       -0.2368297570       -0.5158025747
 C         -2.4490891755        0.1246184610        0.2655402886
 H          2.3627440720       -0.3170424999        1.3848401179
 H          3.3509880347       -0.0981379253       -0.0669275406
 H          2.4348232963        1.2594032604        0.5945017490
 H          1.2554183859       -1.2825125191       -0.6366844791
 H          1.2900266726        0.3129020695       -1.4136921969
 H         -0.0304258724        1.0561864732        0.5275239314
 H         -1.2033963411        0.2801468084       -1.4945109034
 H         -1.1796214783       -1.3137053074       -0.7138850258
 H         -2.4377096823       -0.3738461229        1.2308689214
 H         -2.4994712400        1.1988642188        0.4321769404
 H         -3.3361798282       -0.1830813535       -0.2819165699
  16
        -17.08481713
 C          1.6791003720        0.9259094656        0.0866629574
 C          1.2862036470       -0.5568712552        0.0930176893
 N         -0.0158777671       -0.8934822308       -0.4392757513
 C         -1.1853575613       -0.4847292795        0.3151412290
 C         -1.7592129295        0.8920249835       -0.0333804865
 H          1.0832273938        1.4929001049        0.7975258616
 H          2.7257217092        1.0298859616        0.3630474731
 H          1.5410436465        1.3513919954       -0.9059739085
 H          1.3298697370       -0.9387698473        1.1172178249
 H          2.0167196472       -1.1151021121       -0.5017599114
 H         -0.0972278464       -0.5870204958       -1.4030306887
 H         -1.9633911730       -1.2356147978        0.1279818997
 H         -0.9336159416       -0.5261675153        1.3776328424
 H         -1.0536928987        1.6884412585        0.1868483009
 H         -2.0080980390        0.9358064218       -1.0925322796
 H         -2.6669827518        1.0694349733        0.5386891182
  16
        -17.08475654
 C          1.7049702642        0.9169799557        0.1390297677
 C          1.2607550825       -0.5510998312        0.1273611006
 N         -0.0006050588       -0.8503256346       -0.5149434537
 C         -1.2264785064       -0.5371298127        0.1897042941
 C         -1.7368775034        0.9033442996        0.0713635898
 H          1.6518265034        1.3358383202       -0.8644100335
 H          1.0836086661        1.5158866698        0.7993282316
 H          2.7330922836        0.9866438232        0.4863106061
 H          1.2058188429       -0.9252621573        1.1532450867
 H          2.0218083969       -1.1370026300       -0.4004446461
 H         -0.0229555266       -0.4612325972       -1.4517409886
 H         -1.9971550799       -1.2059332869       -0.2125200123
 H         -1.0809774186       -0.7933076146        1.2421863468
 H         -1.8268050445        1.1851813538       -0.9764647466
 H         -2.7179299178        0.9846771789        0.5334635537
 H         -1.0701583044        1.6071468048        0.5615212536
  16
        -17.08440246
 C          2.0797270020        0.6399727973        0.2202431940
 C          1.3028863457       -0.5744620972       -0.2792877526
 N         -0.0470141586       -0.5985615936        0.2558228498
 C         -0.9471553768        0.3702379418       -0.3433594401
 C         -2.3647715698        0.1597759204        0.1683826611
 H          2.0004006479        0.7030366267        1.3018872339
 H          3.1275738186        0.5470845732       -0.0539763670
 H          1.6924609490        1.5584268102       -0.2121719953
 H          1.8060923047       -1.4810130345        0.0672916977
 H          1.3117892336       -0.5819709092       -1.3853906406
 H         -0.4402889837       -1.5272861474        0.1329961494
 H         -0.6044265428        1.3683870778       -0.0585028583
 H         -0.9385795077        0.3141860914       -1.4487090680
 H         -2.7444632541       -0.8119086320       -0.1423118619
 H         -2.3743116689        0.2024536218        1.2541068001
 H         -3.0252549829        0.9299821900       -0.2215685541
  16
        -17.08427752
 C          1.9515204414        0.6830065658       -0.0457568131
 C          1.0665999341       -0.4950812020       -0.4420794049
 N          0.0264772160       -0.7344348437        0.5461413104
 C         -1.0433074289        0.2433969082        0.6104967830
 C         -1.9753678569        0.2862435885       -0.6058740481
 H          2.8275015909        0.7186937211       -0.6885796315
 H          1.4204328733        1.6262424830       -0.1415452254
 H          2.2728568014        0.5670448552        0.9855866858
 H          1.6811194060       -1.3990908778       -0.4744575860
 H          0.6697916847       -0.3271141573       -1.4575156079
 H         -0.3762118764       -1.6542863417        0.3955985027
 H         -1.6324127840        0.0037726934        1.5012883014
 H         -0.5949266410        1.2265758500        0.7643838525
 H         -1.4366664035        0.5893445988       -1.5007636681
 H         -2.4148330284       -0.6946134801       -0.7814884681
 H         -2.7779904390        0.9986791674       -0.4338002869
  16
        -17.08427624
 C          1.9578393732        0.6851375341       -0.0763717638
 C          1.0456490975       -0.4952804847       -0.4294995148
 N         -0.0224159149       -0.7675321819        0.5138430739
 C         -1.0684834960        0.2375969320        0.6202046165
 C         -1.9381703760        0.2740954121       -0.6327691250
 H          2.7630750502        0.7618747840       -0.8023870775
 H          1.4046457364        1.6215301338       -0.0807748989
 H          2.3944400176        0.5449720192        0.9114659018
 H          1.6495717152       -1.4061513777       -0.4880649808
 H          0.5970237158       -0.3317343944       -1.4110730169
 H          0.3810814421       -0.9303372523        1.4313120020
 H         -1.6918891804       -0.0507595589        1.4712777522
 H         -0.6787308901        1.2495785810        0.8224632320
 H         -2.8214778059        0.8810520375       -0.4505227588
 H         -1.4002199025        0.7006255254       -1.4751884872
 H         -2.2482862141       -0.7345851661       -0.8912158187
  16
        -17.08427448
 C          1.9701720244        0.6627456159        0.1393087752
 C          1.0526482435       -0.5187999458        0.4405128117
 N          0.0421422591       -0.6808209196       -0.5930352080
 C         -1.0265679894        0.3001340682       -0.6110102032
 C         -2.0107481747        0.2258932627        0.5619415748
 H          2.8202056550        0.6520653449        0.8169390473
 H          2.3304601977        0.5929646701       -0.8832514235
 H          1.4493987354        1.6087111918        0.2609638926
 H          0.6248982968       -0.3996406484        1.4501490527
 H          1.6507642344       -1.4341693098        0.4424089100
 H         -0.3637986087       -1.6091158725       -0.5280046412
 H         -0.5749080340        1.2929961434       -0.6493763292
 H         -1.5758177179        0.1482148589       -1.5455663160
 H         -1.5109468059        0.4327523246        1.5055503573
 H         -2.8035985250        0.9573643787        0.4288944014
 H         -2.4595592742       -0.7648053898        0.6177455362
  16
        -17.08426889
 C          1.9854060657        0.6528346487        0.1329885050
 C          1.0514294373       -0.5131400528        0.4447296357
 N          0.0420010317       -0.6715804401       -0.5905783787
 C         -1.0265785941        0.3097099922       -0.6041058381
 C         -2.0246050336        0.2124051689        0.5553029251
 H          1.4737388589        1.6063778375        0.2319892866
 H          2.8279618934        0.6449395910        0.8199670950
 H          2.3556779957        0.5612881128       -0.8842713309
 H          0.6217795065       -0.3767519216        1.4513010114
 H          1.6377215313       -1.4359549959        0.4591666697
 H         -0.3644292975       -1.5999479761       -0.5306281319
 H         -0.5747731509        1.3031187998       -0.6177376636
 H         -1.5644888753        0.1756896969       -1.5480468075
 H         -1.5346888205        0.3934027589        1.5094030438
 H         -2.8122568294        0.9510183145        0.4312435514
 H         -2.4789430042       -0.7769764685        0.5818233938
  16
        -17.08426483
 C          1.9309552800        0.7037196385       -0.0745082121
 C          1.0464793293       -0.4966494766       -0.4312643949
 N         -0.0222690877       -0.7916413622        0.5043858797
 C         -1.0706485792        0.2085554897        0.6330523822
 C         -1.9100279355        0.3084606027       -0.6367577653
 H          2.3566439868        0.5795596731        0.9201357606
 H          2.7443769085        0.7904080713       -0.7901423653
 H          1.3599250404        1.6290185475       -0.0939072778
 H          1.6696882223       -1.3946156650       -0.4845699555
 H          0.6011145673       -0.3441368100       -1.4162497742
 H          0.3794294592       -0.9729006434        1.4192746834
 H         -1.7135199517       -0.1210640142        1.4543271614
 H         -0.6857642143        1.2089253507        0.8944241897
 H         -1.3555985155        0.7857685000       -1.4404518579
 H         -2.2056289490       -0.6863190412       -0.9584438652
 H         -2.8025616271        0.8978960327       -0.4424278169
  16
        -17.08425924
 C          2.0037946366        0.6453260322       -0.0470783313
 C          1.0629208887       -0.4906913660       -0.4389874235
 N          0.0261193266       -0.6831942260        0.5628086077
 C         -1.0419503228        0.2986190681        0.5789246692
 C         -2.0248697329        0.2190134226       -0.5944701147
 H          1.5052003188        1.6090269923       -0.1055951881
 H          2.3508291849        0.4957722706        0.9714364376
 H          2.8607764304        0.6631838207       -0.7157284461
 H          1.6377441700       -1.4195379644       -0.4849966500
 H          0.6601464259       -0.2986882201       -1.4475393713
 H         -0.3789931064       -1.6085789388        0.4628940719
 H         -1.5923499550        0.1507936877        1.5136240756
 H         -0.5898640973        1.2913499483        0.6130707276
 H         -2.8093360426        0.9617425101       -0.4745811749
 H         -1.5205990991        0.4049564364       -1.5401878862
 H         -2.4852866005       -0.7670403421       -0.6360707688
  16
        -17.08425099
 C          2.0327404751        0.6280092070       -0.0779818328
 C          1.0439975955       -0.4913483586       -0.4225647048
 N         -0.0236109644       -0.6935452759        0.5388321909
 C         -1.0619511033        0.3244589649        0.5696080923
 C         -2.0169496243        0.1709615096       -0.6111655563
 H          2.4973932460        0.4379578223        0.8884350837
 H          2.8135835103        0.6812072791       -0.8321928637
 H          1.5320083693        1.5928182948       -0.0365201202
 H          1.5897317637       -1.4377739670       -0.4929730828
 H          0.5913897623       -0.2953676190       -1.3961426780
 H          0.3817110621       -0.7996434790        1.4633477743
 H         -1.6255454564        0.1794849034        1.4950548820
 H         -0.6603978239        1.3514277103        0.5822689122
 H         -2.8697491172        0.8335083936       -0.4861873494
 H         -1.5272908113        0.4175531638       -1.5493370478
 H         -2.3689428798       -0.8554558184       -0.6636825551
  16
        -17.08178957
 C          2.1523577066        0.5499188089       -0.0611196350
 C          1.1795257668       -0.5268091284        0.4111693172
 N         -0.0024941461       -0.5502516602       -0.4291707332
 C         -0.9622670711        0.5227790044       -0.1907955287
 C         -2.3357471097        0.0060145462        0.2260410575
 H          3.0628256739        0.5194653449        0.5322165849
 H          2.4020409754        0.3829939510       -1.1049972111
 H          1.7090806241        1.5379564118        0.0314053381
 H          0.9385378069       -0.3574452623        1.4767643377
 H          1.6648782346       -1.5027331572        0.3289955252
 H         -0.4687911921       -1.4464065852       -0.3511550637
 H         -0.5822468350        1.1947173796        0.5870904939
 H         -1.0616861802        1.1065254498       -1.1145783468
 H         -2.7439740171       -0.6442925088       -0.5449931724
 H         -2.2669751312       -0.5565417334        1.1560084552
 H         -3.0226445353        0.8356091268        0.3758841233
  16
        -17.08155299
 C          1.6564323678        0.9152097388        0.0053392348
 C          1.3118028093       -0.5684264968        0.0817279346
 N         -0.0278400066       -0.8327742505       -0.4088643761
 C         -1.1150209282       -0.3816883015        0.4514454871
 C         -1.8200717409        0.8340954475       -0.1486351122
 H          2.7051398599        1.0645356184        0.2512276054
 H          1.4728271206        1.2825944186       -1.0004053944
 H          1.0549312912        1.4898958145        0.7043663002
 H          1.4525362485       -0.9167968983        1.1223194341
 H          2.0050358400       -1.1257166006       -0.5541530159
 H         -0.1230382923       -1.8198829673       -0.6115091896
 H         -1.8508345129       -1.1837127956        0.5682844133
 H         -0.7406101439       -0.1315544731        1.4542029517
 H         -2.6480318040        1.1384678185        0.4876033936
 H         -1.1313195241        1.6664717656       -0.2524190085
 H         -2.2047004173        0.5848533188       -1.1336791407
  16
        -17.08142968
 C          1.7452442228        0.8801399543       -0.0347319478
 C          1.3283346529       -0.5826745989        0.0879468411
 N         -0.0311817828       -0.7726162995       -0.3783794386
 C         -1.0810600788       -0.2944539282        0.5122101307
 C         -1.9528320475        0.7395593712       -0.1984707865
 H          1.1401371630        1.5105923039        0.6113308494
 H          2.7889372128        0.9962957229        0.2472938033
 H          1.6154015631        1.2117180610       -1.0610861445
 H          1.4665588871       -0.9137472290        1.1337835581
 H          1.9814423492       -1.1906231970       -0.5433782281
 H         -0.1865040348       -1.7400822737       -0.6296502510
 H         -1.7159041977       -1.1218792366        0.8524853947
 H         -0.6354235537        0.1605760320        1.4036099137
 H         -1.3457222251        1.5798319424       -0.5222622631
 H         -2.4160365080        0.2950307211       -1.0751589214
 H         -2.7324974012        1.1001598220        0.4683978363
  16
        -17.08142879
 C          1.7583608606        0.7894568347        0.3931647537
 C          1.3339419566       -0.5146365612       -0.2764432555
 N         -0.0358295028       -0.8449669986        0.0646383675
 C         -1.0652974600       -0.0607775208       -0.6052126469
 C         -1.9821548574        0.6000452722        0.4227108269
 H          1.6090112476        0.7131386843        1.4665108785
 H          2.8083227419        0.9886107290        0.1932441446
 H          1.1707358974        1.6247832574        0.0217512854
 H          1.9701753194       -1.3239366687        0.0910243205
 H          1.4902959186       -0.4319102534       -1.3677660650
 H         -0.2032729009       -1.8351457591       -0.0571202323
 H         -0.5979664063        0.7140346851       -1.2218539776
 H         -1.6700184031       -0.6872799429       -1.2734739004
 H         -2.4660704493       -0.1586867440        1.0317079287
 H         -1.4021907440        1.2444669377        1.0769918883
 H         -2.7455796735        1.1929886645       -0.0753954512
