! pbe def2-sv(p) def2/J RI DEFGRID1 loosescf d4 GCP(DFT/SV(P)) printgap
%output
    printlevel normal
end
* xyz 0 1
C -2.7651299064 -1.3089461935 -2.0337458198
C -3.4871950508 -0.8681367695 -0.7653596217
C -2.5726324835 -0.8897185561 0.462082859
H -2.153747857 -1.8957910992 0.5720910213
C -3.3105369969 -0.5123418203 1.7424938415
N -1.3956493844 -0.0240308807 0.2638972156
C -0.147897691 -0.6461561245 0.248531366
O -0.0339864234 -1.8501684843 0.4052507203
C 0.9759633145 0.2405242814 0.0372812238
C 0.8314820723 1.5786890925 -0.1325242509
N -0.439922514 2.0689571189 -0.0984258606
C -1.5802626767 1.3258450408 0.0899513549
O -2.6663237669 1.8749461958 0.0953691386
C 1.9175513774 2.5645676405 -0.3523926808
Br 2.6719154198 -0.6203541286 0.0172547055
H -2.3045247468 -2.2847697966 -1.8912875765
H -3.4657092056 -1.3728253156 -2.8613663275
H -1.9835670665 -0.6009000632 -2.3050414728
H -3.8961600875 0.1342833257 -0.8952622814
H -4.3142221992 -1.5490585147 -0.563949416
H -3.7490414978 0.4775269411 1.6525972715
H -4.1014217278 -1.2335550396 1.9224811617
H -2.6281078023 -0.5252258561 2.5893454805
H -0.5893562034 3.0657768972 -0.2224361213
H 1.7688067058 3.070998717 -1.303904197
H 2.8884988381 2.0796437355 -0.3579318658
H 1.8996608904 3.3141547669 0.4360466507
*
