  18
  -26.5500894200000       9.402482813322630E-002 !gc
 C         -3.1731434983        0.1767467231       -0.0080832762
 O         -1.9622029083        0.8894971362        0.0056952672
 C         -0.7923979871        0.1830051925        0.0022972989
 C         -0.7006792374       -1.2040484365       -0.0027992504
 C          0.5521378739       -1.7976040531       -0.0006024819
 C          1.7041651066       -1.0418139837        0.0071396867
 C          1.6208027777        0.3528306579        0.0106193532
 C          0.3670197719        0.9515047306        0.0116221995
 N          2.7641738873        1.1245244827       -0.0565666036
 H         -3.9596183541        0.9302500513       -0.0080987862
 H         -3.2796699589       -0.4554064180        0.8799312758
 H         -3.2667028004       -0.4422572329       -0.9065950154
 H         -1.5808718824       -1.8260695620       -0.0070923513
 H          0.6223144234       -2.8756970913       -0.0021094140
 H          2.6734854925       -1.5182278226        0.0081995816
 H          0.2721702612        2.0265293430        0.0156984788
 H          2.6670252748        2.0857787377        0.2275956758
 H          3.6164277015        0.6825269712        0.2475217515
  18
  -26.5500894000000       9.402283822271029E-002 !mtd14
 C         -3.1731797940        0.1767172524       -0.0081886502
 O         -1.9622188478        0.8895099565        0.0058429728
 C         -0.7923971005        0.1830030687        0.0023235272
 C         -0.7006783697       -1.2040333970       -0.0027776897
 C          0.5521565745       -1.7975993018       -0.0006245550
 C          1.7041583842       -1.0418051452        0.0071629793
 C          1.6207794420        0.3528519486        0.0105893301
 C          0.3670193626        0.9515356614        0.0115042718
 N          2.7642431778        1.1244881355       -0.0565484572
 H         -3.2798628818       -0.4555435993        0.8797425830
 H         -3.2665797556       -0.4422280281       -0.9067540298
 H         -3.9596733843        0.9302119549       -0.0082766656
 H         -1.5808452547       -1.8260914259       -0.0071919471
 H          0.6223053792       -2.8756938128       -0.0023197488
 H          2.6735077527       -1.5181583772        0.0082620484
 H          0.2721526679        2.0265561804        0.0155599841
 H          2.6671141020        2.0857090731        0.2277973993
 H          3.6162834823        0.6823796366        0.2480695265
  18
  -26.5500893700000       9.401985343536921E-002 !mtd6
 C         -3.1729885429        0.1769979051        0.0312838405
 O         -1.9622429545        0.8894495800       -0.0014331060
 C         -0.7924043215        0.1829788588        0.0011637977
 C         -0.7005885354       -1.2039128803        0.0212341281
 C          0.5522351036       -1.7975081464        0.0166363708
 C          1.7041162770       -1.0418994238       -0.0080561481
 C          1.6206383252        0.3526362307       -0.0268482879
 C          0.3668762121        0.9513049337       -0.0254025603
 N          2.7644667355        1.1249497536        0.0230869275
 H         -3.2580356728       -0.4326565826        0.9370077137
 H         -3.2879541040       -0.4644067592       -0.8490801579
 H         -3.9594462870        0.9305562680        0.0308875680
 H         -1.5806656348       -1.8258735363        0.0389609818
 H          0.6224267573       -2.8755133384        0.0299934061
 H          2.6734600126       -1.5182636098       -0.0106568038
 H          0.2719708224        2.0262233055       -0.0408942008
 H          3.6144008650        0.6795044736       -0.2824858343
 H          2.6652111902        2.0829800025       -0.2711219399
  18
  -26.5500893700000       9.401985343536921E-002 !mtd10
 C         -3.1731725945        0.1766181955       -0.0076418315
 O         -1.9622405287        0.8895653692        0.0051773095
 C         -0.7923917132        0.1830465139        0.0023013066
 C         -0.7007008317       -1.2040017004       -0.0028003282
 C          0.5521123154       -1.7975760657       -0.0006212853
 C          1.7041509169       -1.0418090163        0.0070173944
 C          1.6208232526        0.3528461583        0.0106074116
 C          0.3670501811        0.9515557191        0.0115935690
 N          2.7642179238        1.1244741563       -0.0563378257
 H         -3.2673006630       -0.4428172210       -0.9058455208
 H         -3.9597938885        0.9299806074       -0.0074726279
 H         -3.2790708129       -0.4551713934        0.8807377620
 H         -1.5808088956       -1.8260404284       -0.0072946917
 H          0.6222099815       -2.8756807383       -0.0022763879
 H          2.6734621413       -1.5182202936        0.0079443652
 H          0.2722708369        2.0265795555        0.0156087284
 H          3.6165213705        0.6821511588        0.2470850230
 H          2.6674519032        2.0855592001        0.2284766592
  18
  -26.5500893500000       9.401786363013608E-002 !gc
 C         -3.1730730038        0.1767479997       -0.0084116627
 O         -1.9621466729        0.8895158695        0.0060006476
 C         -0.7924231133        0.1829642421        0.0023913134
 C         -0.7006996944       -1.2040951313       -0.0027176083
 C          0.5521453226       -1.7976105361       -0.0005719763
 C          1.7041564449       -1.0418096546        0.0071232392
 C          1.6207982508        0.3528321475        0.0105872618
 C          0.3670092948        0.9514907769        0.0116383860
 N          2.7641438094        1.1245264125       -0.0566570305
 H         -3.9596453135        0.9301081051       -0.0087072642
 H         -3.2799392531       -0.4556174366        0.8794698374
 H         -3.2661593625       -0.4422012519       -0.9070660230
 H         -1.5808603451       -1.8261429690       -0.0069676987
 H          0.6223599038       -2.8757031512       -0.0021000751
 H          2.6734750708       -1.5182233305        0.0081809788
 H          0.2720971470        2.0265022281        0.0156792081
 H          3.6163381166        0.6834059689        0.2488282826
 H          2.6663158960        2.0861780659        0.2259850698
  18
  -26.5500891100000       9.399398924931349E-002 !md8
 C         -3.1730982592        0.1768600657       -0.0108893952
 O         -1.9621555086        0.8895009130        0.0077844120
 C         -0.7923771187        0.1829682442        0.0034311146
 C         -0.7006913001       -1.2041051185       -0.0020912059
 C          0.5521185715       -1.7976316148       -0.0003563692
 C          1.7041858424       -1.0418770497        0.0069145774
 C          1.6208634477        0.3527481149        0.0105623846
 C          0.3670528421        0.9514365262        0.0124927735
 N          2.7639306188        1.1246822356       -0.0577761381
 H         -3.2648327994       -0.4386611693       -0.9119795048
 H         -3.9595320442        0.9303607929       -0.0093997034
 H         -3.2813276066       -0.4587963502        0.8744233152
 H         -1.5808968857       -1.8260965388       -0.0062191147
 H          0.6223063083       -2.8757362182       -0.0021130242
 H          2.6734688972       -1.5183502783        0.0072748946
 H          0.2722082770        2.0264509018        0.0169270974
 H          2.6669261981        2.0857585680        0.2272608513
 H          3.6170898585        0.6828865593        0.2440671288
  18
  -26.5498454700000       7.263248291896007E-002 !mtd5
 C         -2.6148449562        1.4527616401       -0.0121639094
 O         -2.2161100051        0.1060450768        0.0031715347
 C         -0.8809061688       -0.1807945062        0.0034670808
 C         -0.5545218033       -1.5376844494        0.0030548683
 C          0.7700994578       -1.9228969786        0.0051154675
 C          1.7823436465       -0.9812544971        0.0091883944
 C          1.4669689600        0.3749581981        0.0098022207
 C          0.1280412796        0.7695099518        0.0102184026
 N          2.4650694730        1.3289456825       -0.0606739434
 H         -2.2723413848        1.9856409681        0.8816302234
 H         -3.7038908024        1.4388387911       -0.0247344263
 H         -2.2505143981        1.9713720692       -0.9054056518
 H         -1.3532398249       -2.2609652230        0.0016134910
 H          1.0197458421       -2.9735784407        0.0063848387
 H          2.8179887060       -1.2877308894        0.0096782649
 H         -0.0948151838        1.8258344419        0.0113531004
 H          3.3823537075        1.0285348879        0.2268616463
 H          2.2182889457        2.2568594359        0.2436486390
  18
  -26.5498454500000       7.263094574872421E-002 !mtd8
 C         -2.6150121137        1.4528471974        0.0095069781
 O         -2.2160407450        0.1060512372        0.0134294034
 C         -0.8808366665       -0.1806365673        0.0070517743
 C         -0.5543925795       -1.5373310423        0.0303394472
 C          0.7701801428       -1.9227010218        0.0243350196
 C          1.7822453187       -0.9813682937       -0.0060383921
 C          1.4668047431        0.3746288889       -0.0297867998
 C          0.1279150283        0.7692927130       -0.0263634597
 N          2.4655389197        1.3295219125        0.0140354819
 H         -3.7038402650        1.4389074937        0.0328603788
 H         -2.2813663925        1.9705425743       -0.8965678302
 H         -2.2422538953        1.9867033510        0.8901607370
 H         -1.3530664490       -2.2603232347        0.0524069229
 H          1.0198335176       -2.9732697115        0.0411922672
 H          2.8179252305       -1.2877907779       -0.0092545185
 H         -0.0950915463        1.8254271815       -0.0457961706
 H          3.3804797995        1.0233823258       -0.2749271950
 H          2.2166278293        2.2515420601       -0.3060855876
  18
  -26.5498454500000       7.263094574872421E-002 !md7
 C         -2.6149781827        1.4526978724       -0.0134720298
 O         -2.2160900275        0.1060281761        0.0042063940
 C         -0.8808956055       -0.1807551040        0.0039205078
 C         -0.5545195187       -1.5376507390        0.0035951405
 C          0.7700991093       -1.9228907140        0.0051788099
 C          1.7823327852       -0.9812387434        0.0089063141
 C          1.4669665141        0.3749783011        0.0096690135
 C          0.1280591627        0.7695478448        0.0102626566
 N          2.4651777526        1.3289050325       -0.0609400558
 H         -2.2513476507        1.9695622641       -0.9080193489
 H         -2.2719009990        1.9874531186        0.8789720127
 H         -3.7039389644        1.4386047043       -0.0251490441
 H         -1.3532680422       -2.2609036888        0.0025817071
 H          1.0197194970       -2.9735808178        0.0062788403
 H          2.8179837030       -1.2877019719        0.0090110245
 H         -0.0948183405        1.8258875553        0.0112693638
 H          2.2184336732        2.2568519723        0.2436117541
 H          3.3822750128        1.0284012169        0.2271582306
  18
  -26.5498454300000       7.262940861129358E-002 !mtd4
 C         -2.6146895721        1.4530367433        0.0089466978
 O         -2.2160402068        0.1062159732        0.0137393226
 C         -0.8809724929       -0.1808222917        0.0072952662
 C         -0.5544084173       -1.5374566428        0.0305582842
 C          0.7702402854       -1.9226941334        0.0244024239
 C          1.7823413827       -0.9814256028       -0.0062078220
 C          1.4668107321        0.3745760921       -0.0297769356
 C          0.1278708192        0.7690695791       -0.0261186100
 N          2.4652135045        1.3296596990        0.0137978681
 H         -2.2807530516        1.9698073555       -0.8973758996
 H         -2.2418212757        1.9873815738        0.8892559525
 H         -3.7034225175        1.4395409416        0.0320955620
 H         -1.3528554851       -2.2607014806        0.0524415448
 H          1.0199175313       -2.9732208898        0.0407890727
 H          2.8179531272       -1.2879325982       -0.0099309723
 H         -0.0950111242        1.8252036272       -0.0453764072
 H          3.3803971530        1.0240015525       -0.2746754014
 H          2.2159148480        2.2518516621       -0.3055042959
  18
  -26.5498454000000       7.262710296573435E-002 !mtd14
 C         -2.6148326251        1.4528547059        0.0083675189
 O         -2.2160314186        0.1061402835        0.0141905152
 C         -0.8808488243       -0.1807260876        0.0075143926
 C         -0.5544181426       -1.5373900471        0.0308652749
 C          0.7701866818       -1.9227039322        0.0244313509
 C          1.7822733108       -0.9814014555       -0.0063760812
 C          1.4668027567        0.3746243726       -0.0298651966
 C          0.1279017170        0.7692259402       -0.0261101798
 N          2.4654319345        1.3295461780        0.0137405034
 H         -2.2420676420        1.9880159916        0.8882564996
 H         -3.7036659362        1.4391439893        0.0317969443
 H         -2.2809186993        1.9690988953       -0.8984495634
 H         -1.3530497321       -2.2604210895        0.0530312671
 H          1.0198382351       -2.9732624969        0.0405907781
 H          2.8179450860       -1.2878525584       -0.0104657149
 H         -0.0952517268        1.8253377013       -0.0452727867
 H          2.2156651261        2.2520627724       -0.3042618371
 H          3.3801732103        1.0242072046       -0.2766274046
  18
  -26.5498452500000       7.261557583688644E-002 !mtd10
 C         -2.6150842233        1.4526093360       -0.0157046557
 O         -2.2160535630        0.1059853819        0.0052749482
 C         -0.8808627213       -0.1806679810        0.0051309604
 C         -0.5545178988       -1.5375917225        0.0047425709
 C          0.7700760752       -1.9228816904        0.0053777772
 C          1.7823501976       -0.9812606833        0.0081350257
 C          1.4670169889        0.3749758823        0.0094898248
 C          0.1280994403        0.7696182154        0.0113634182
 N          2.4651087937        1.3288233901       -0.0616977300
 H         -3.7039016795        1.4383712702       -0.0321269497
 H         -2.2474944698        1.9686319311       -0.9091825149
 H         -2.2760031805        1.9884209839        0.8774763770
 H         -1.3533186781       -2.2607829932        0.0041266716
 H          1.0196657332       -2.9735797227        0.0062110965
 H          2.8179840971       -1.2877691195        0.0070725091
 H         -0.0947581526        1.8259656574        0.0133400380
 H          2.2185093230        2.2570770102        0.2415356273
 H          3.3826723759        1.0287109298        0.2251741363
  18
  -26.5434011700000       7.934794168179250E-005 !mtd5
 C         -2.8092425279        0.7999879590        0.6907863156
 O         -2.1014829880        0.5113335663       -0.4927510909
 C         -0.8316212394       -0.0004883270       -0.2695191480
 C         -0.6386275897       -1.3743713012       -0.2040370260
 C          0.6417043208       -1.8681087837       -0.0232557437
 C          1.7184385875       -1.0125750916        0.0962361192
 C          1.5318609052        0.3690029461        0.0334006684
 C          0.2422771589        0.8658037135       -0.1478911615
 N          2.5924217075        1.2325335413        0.2205287339
 H         -2.2863759416        1.5487449088        1.2975180657
 H         -2.9581838399       -0.1013780056        1.2969190522
 H         -3.7761324458        1.1934443809        0.3816575953
 H         -1.4835934472       -2.0368969583       -0.3074032929
 H          0.8018198422       -2.9353304948        0.0226278859
 H          2.7149291965       -1.4059486409        0.2369922590
 H          0.0748977530        1.9316833725       -0.2062146464
 H          3.5104357019        0.8517281952        0.0577714326
 H          2.4649234090        2.1729799740       -0.1166390833
  18
  -26.5430542000000       5.496412187070766E-005 !mtd14
 C         -2.8217818439        0.7801553172       -0.6647571032
 O         -2.0936953792        0.5234809936        0.5131908741
 C         -0.8268395931        0.0068518418        0.2835193202
 C         -0.6327159993       -1.3681638905        0.2600969380
 C          0.6438035854       -1.8663379961        0.0645826261
 C          1.7150943370       -1.0142584650       -0.1131565934
 C          1.5278288982        0.3687385124       -0.0906327202
 C          0.2414560426        0.8699115722        0.1024096669
 N          2.6034166707        1.2255803189       -0.1904511579
 H         -2.9798273153       -0.1370408656       -1.2449701633
 H         -2.3111684314        1.5137152038       -1.3003091758
 H         -3.7840379877        1.1807335139       -0.3499766618
 H         -1.4739794802       -2.0278060524        0.4042213053
 H          0.8041735642       -2.9343824987        0.0470451197
 H          2.7085918543       -1.4109759029       -0.2651117433
 H          0.0736270428        1.9370436931        0.1284499583
 H          2.4001637197        2.1796158733       -0.4385616071
 H          3.4434304920        0.8499788371       -0.5983702583
