! r2scan-3c def2/J RI DEFGRID2 scfconv6 printgap
%output
    printlevel normal
end
* xyz 0 1
C -2.474604298 0.234763156 0.967440599
C -1.7667522318 0.6482790933 -0.3265236914
C -0.5204416046 -0.1809040301 -0.4945505638
O -0.4535482051 -1.2175041272 -1.1241525729
O 0.5063786947 0.3412425224 0.1584237025
C 1.7600862922 -0.3615070071 0.1256175945
C 2.8408885024 0.5722701756 0.6354004066
H -2.7318809188 -0.8213318196 0.9353245867
H -1.8288647333 0.4126283175 1.823400717
H -3.3852935298 0.8135821643 1.0872212602
H -1.4862474632 1.6991709876 -0.2752530953
H -2.4174620396 0.4710735912 -1.181866004
H 1.6688554614 -1.2536375639 0.753635887
H 1.9488850649 -0.6850196428 -0.9033272921
H 2.907029906 1.449718557 -0.0011275004
H 2.6087053421 0.8903821075 1.6473155906
H 3.7941506769 0.0542908784 0.631482203
*
