  30
        -31.63896319
 C         -4.9893074768        0.0194809708        0.2692903558
 C         -3.6611303255        0.4524280059       -0.3392030358
 C         -2.4866756696       -0.3318479576        0.2409052815
 C         -1.1519965352        0.0998043580       -0.3616638740
 C          0.0189040917       -0.6923627400        0.2161048030
 C          1.3619337227       -0.2792092728       -0.3811649791
 C          1.8049224531        1.1446377916        0.0141293366
 C          3.3004711803        1.0565084677        0.3641973427
 C          3.7492800858       -0.3129941700       -0.1447539249
 C          2.5155266572       -1.1797019483        0.0749972323
 H         -4.9847958695        0.1769172990        1.3458124425
 H         -5.1692276647       -1.0366176979        0.0797540235
 H         -5.8113383500        0.5896450637       -0.1574382043
 H         -3.5081668921        1.5184701096       -0.1554483798
 H         -3.6927292137        0.3055330902       -1.4213144661
 H         -2.6390583864       -1.3979149120        0.0552813812
 H         -2.4576253003       -0.1872847030        1.3236961947
 H         -1.0005028015        1.1647945795       -0.1743115516
 H         -1.1826776777       -0.0425912644       -1.4446899006
 H          0.0490714855       -0.5574978656        1.3002859309
 H         -0.1415494253       -1.7560536681        0.0210192883
 H          1.2871217576       -0.3400165859       -1.4718491532
 H          1.6351892516        1.8419293104       -0.8057493295
 H          1.2333680264        1.4991877469        0.8718908515
 H          3.8751167545        1.8683040047       -0.0800656000
 H          3.4355676295        1.1041602032        1.4456462975
 H          3.9797549458       -0.2621543652       -1.2103286687
 H          4.6281641722       -0.6853657778        0.3802223294
 H          2.5519233303       -2.1178621815       -0.4774409654
 H          2.4076621964       -1.4084380668        1.1370438691
