! pbe def2-sv(p) def2/J RI DEFGRID1 loosescf d4 GCP(DFT/SV(P)) printgap
%output
    printlevel normal
end
* xyz 0 1
C -1.0769985646 -0.1200451251 0.7236842681
C 0.2467870298 0.5518527535 0.3314948378
C 1.1019234987 -0.4047128659 -0.5108316894
O 1.6634921492 -1.3590891157 0.3627601477
O -0.0846928766 1.7290015134 -0.3733649076
O -1.8778027146 -0.3997792084 -0.3976148831
H -1.6131793621 0.5333576821 1.4236361867
H -0.864205949 -1.0737122485 1.2087050498
H 0.7999433984 0.7843635737 1.2523127763
H 1.8939616881 0.162410354 -1.0199634678
H 0.4613651866 -0.8792598842 -1.2637659767
H 2.1137117159 -2.040395235 -0.1552076793
H 0.715544286 2.2339045451 -0.5694750679
H -1.9987025917 0.4305535563 -0.882930402
*
