! pbe def2-sv(p) def2/J RI DEFGRID1 loosescf d4 GCP(DFT/SV(P)) printgap
%output
    printlevel normal
end
* xyz 0 1
C -2.9184801066 -1.119291295 -0.4191145175
C -2.3890155345 0.3069402119 -0.3053132677
O -1.3836623421 0.4916451633 0.6903128993
C -0.07140064 0.2516380636 0.3220634076
C 0.8033432178 1.3336245499 0.308203732
C 2.1374142768 1.1454986569 -0.002645601
C 2.6086186856 -0.120097527 -0.3092713538
C 1.7413944819 -1.198556834 -0.2875274616
C 0.4061521372 -1.0207922602 0.031029218
H -3.8384770959 -1.107884654 -0.9962046133
H -2.2070924023 -1.7691632108 -0.9203521264
H -3.1278064254 -1.5140777617 0.5718038064
H -3.1961277697 0.9702143702 0.0177508718
H -2.012838449 0.6547125481 -1.275066153
H 0.4197135001 2.3129563039 0.5504241814
H 2.8080066283 1.9911781393 -0.0102418361
H 3.6482792828 -0.2661098041 -0.5580695626
H 2.104763899 -2.1896063395 -0.5134801623
H -0.2577616122 -1.8691617661 0.071233254
*
