! r2scan-3c def2/J RI DEFGRID2 scfconv6 printgap
%output
    printlevel normal
end
* xyz 0 1
C -1.3909036865 0.0090235426 0.6621345519
C 0.1006683468 0.3277516349 0.4613435052
C 0.8311895594 -0.8258121128 -0.2336430408
O 2.1874020333 -0.7912668955 0.1538220686
O 0.2426532879 1.4807076538 -0.3479504007
O -2.038099187 -0.2748803213 -0.5553084156
H -1.8781702 0.8600154007 1.1585998767
H -1.5065906923 -0.8756980276 1.2895743409
H 0.5741582701 0.4759176809 1.4396313286
H 0.7289184174 -0.6958704584 -1.3164444558
H 0.3697430465 -1.776259719 0.060579293
H 2.6793666474 -1.4559104792 -0.3471044893
H 0.10842069 2.2757537167 0.1846102257
H -1.8274650301 0.4390048238 -1.176742544
*
