  11
  -14.0767298600000       0.111394726079881      !mtd10
 C         -2.3530091181        0.8577215038       -0.1660343060
 C         -1.8978786337       -0.4863839266        0.3867458338
 C         -0.6626541112       -1.0145403192       -0.3188241324
 Br         0.9022884481        0.1102627589        0.0218576923
 H         -3.2446536819        1.1975753769        0.3544241809
 H         -1.5751321370        1.6072199223       -0.0360850358
 H         -2.5825531924        0.7783520539       -1.2270540411
 H         -2.6926743008       -1.2267994042        0.2569969117
 H         -1.6966250308       -0.3960586389        1.4567360193
 H         -0.7928202220       -1.0267077596       -1.4004801324
 H         -0.3929249439       -2.0100051559        0.0318282539
  11
  -14.0767298600000       0.111394726079881      !mtd12
 C         -2.3530092288        0.8577175016       -0.1660541493
 C         -1.8978658448       -0.4863651293        0.3867723626
 C         -0.6626428531       -1.0145042231       -0.3188525207
 Br         0.9022819321        0.1102538397        0.0218619829
 H         -1.5749001090        1.6071284253       -0.0366078542
 H         -2.5830063430        0.7781968985       -1.2269887983
 H         -3.2443583533        1.1978169773        0.3547857325
 H         -2.6926044865       -1.2268240991        0.2570520738
 H         -1.6965699760       -0.3960041034        1.4567426057
 H         -0.7928277573       -1.0266992464       -1.4004881111
 H         -0.3928851601       -2.0099378278        0.0317889842
  11
  -14.0767298500000       0.111393547312775      !mtd4
 C         -2.3378271480        0.8697589199        0.2827455377
 C         -1.9192999432       -0.5026238142       -0.2278826663
 C         -0.6371433997       -0.9946787725        0.4175164443
 Br         0.8985007712        0.1072002390       -0.0901528115
 H         -1.5723624113        1.6101124137        0.0596924203
 H         -3.2641380569        1.1828909525       -0.1920211040
 H         -2.4931615566        0.8471667882        1.3598273144
 H         -1.7927549002       -0.4695908769       -1.3125044632
 H         -2.7016607568       -1.2338528298       -0.0043742082
 H         -0.3905498803       -2.0078869824        0.1025263643
 H         -0.6921317937       -0.9490804764        1.5046850955
  11
  -14.0767298400000       0.111392368558352      !mtd4
 C         -2.3378860924        0.8697344221        0.2827855169
 C         -1.9192334641       -0.5025435911       -0.2279672191
 C         -0.6371647234       -0.9946851357        0.4175537393
 Br         0.8985032532        0.1071889017       -0.0901487447
 H         -3.2640388211        1.1829671964       -0.1921274747
 H         -2.4934457095        0.8471866941        1.3598443192
 H         -1.5723436109        1.6099776825        0.0597930983
 H         -1.7925781145       -0.4694422430       -1.3125636530
 H         -2.7017126147       -1.2336596921       -0.0045810481
 H         -0.3905476574       -2.0077890798        0.1025635123
 H         -0.6921252743       -0.9491710163        1.5046669993
  11
  -14.0767298100000       0.111388832369505      !mtd4
 C         -2.3373444927        0.8696756251        0.2827771111
 C         -1.9192518735       -0.5028299358       -0.2278465893
 C         -0.6370807769       -0.9949581333        0.4175190692
 Br         0.8983804751        0.1072920470       -0.0901533862
 H         -2.4921557665        0.8475669102        1.3598340857
 H         -1.5718830604        1.6097587340        0.0590345221
 H         -3.2638366475        1.1828670533       -0.1917073478
 H         -1.7926266653       -0.4697460510       -1.3124511805
 H         -2.7016715110       -1.2339955908       -0.0043638989
 H         -0.3902932079       -2.0078416097        0.1019826538
 H         -0.6918265387       -0.9493507515        1.5047106883
  11
  -14.0767298100000       0.111388832369505      !gc
 C         -2.3526878473        0.8577166746       -0.1659423477
 C         -1.8978560436       -0.4865314338        0.3866733998
 C         -0.6625457892       -1.0147287089       -0.3186998463
 Br         0.9022049705        0.1103258159        0.0218278330
 H         -2.5796854886        0.7789166556       -1.2275653501
 H         -3.2458623162        1.1964090963        0.3526903200
 H         -1.5757543574        1.6077383517       -0.0336284883
 H         -2.6926828452       -1.2269131827        0.2568399636
 H         -1.6967570079       -0.3961582555        1.4566730350
 H         -0.7927593843       -1.0273763139       -1.4003147901
 H         -0.3926527951       -2.0099785873        0.0323248778
  11
  -14.0767164900000       0.109829802674184      !mtd2
 C         -3.1486492303        0.5189400648       -0.2451614715
 C         -1.7318321343        0.5531385233        0.3160974935
 C         -0.7796752511       -0.1920345600       -0.6004177899
 Br         1.0452292223       -0.1605419404        0.1010981995
 H         -3.4999213632       -0.5063777106       -0.3401186048
 H         -3.8256327398        1.0538583830        0.4155381946
 H         -3.1850664068        0.9870571710       -1.2266160424
 H         -1.7163783835        0.0956250221        1.3080435138
 H         -1.4012865312        1.5890895262        0.4210473919
 H         -0.7328632024        0.2639497092       -1.5888950956
 H         -1.0509504541       -1.2431640189       -0.6940742881
  11
  -14.0767164900000       0.109829802674184      !md4
 C         -3.1486362094        0.5187439702       -0.2450879509
 C         -1.7316893885        0.5534298523        0.3159461194
 C         -0.7797019828       -0.1921410876       -0.6004713188
 Br         1.0452108085       -0.1605346984        0.1011219565
 H         -3.8255993592        1.0540161309        0.4154116243
 H         -3.1850895131        0.9862545178       -1.2268213105
 H         -3.4998882817       -0.5066576637       -0.3394410796
 H         -1.7160356469        0.0962906797        1.3080529913
 H         -1.4011918314        1.5894406605        0.4203380032
 H         -0.7330352304        0.2634670246       -1.5891777555
 H         -1.0513371078       -1.2432128150       -0.6937551343
  11
  -14.0767164600000       0.109826316089525      !mtd5
 C         -3.1485119477        0.5187113961       -0.2450813014
 C         -1.7315247569        0.5534683294        0.3159131005
 C         -0.7796507462       -0.1922375930       -0.6005041859
 Br         1.0451503403       -0.1605197886        0.1011331460
 H         -3.1851120450        0.9861079835       -1.2268936695
 H         -3.4997431476       -0.5067675092       -0.3391780108
 H         -3.8254122696        1.0541110250        0.4153616158
 H         -1.7157647275        0.0966546862        1.3082155708
 H         -1.4010613721        1.5895539468        0.4200193230
 H         -0.7329423823        0.2631958048       -1.5892001553
 H         -1.0514005294       -1.2433597201       -0.6938984982
  11
  -14.0724966600000       1.263050189892890E-003 !md6
 C         -2.3272102823        0.8769848088        0.2792193501
 C         -1.9165718982       -0.5141847701       -0.2206578550
 C         -0.6295014705       -1.0109053024        0.4116172471
 Br         0.8944540139        0.1107514168       -0.0897314935
 H         -3.2913574498        0.8457323748        0.7795515646
 H         -1.5981953643        1.2677018413        0.9854523693
 H         -2.3969489589        1.5835230088       -0.5431369265
 H         -1.7982999537       -0.5061398767       -1.3059634430
 H         -2.6933196015       -1.2459407222        0.0161065966
 H         -0.3801816307       -2.0180459378        0.0790004490
 H         -0.6777359303       -0.9835713192        1.4996436076
  11
  -14.0721743000000       8.979956023164506E-004 !mtd2
 C         -2.8838587477        0.7898591911        0.3401471752
 C         -1.8775986779       -0.0636223049       -0.4238935773
 C         -0.7707297661       -0.5858477149        0.4932700966
 Br         1.0191701446       -0.0307032325       -0.0804694449
 H         -2.3958935790        1.6591384493        0.7761186055
 H         -3.6650716551        1.1379480238       -0.3309865563
 H         -3.3489947968        0.2152569707        1.1387821309
 H         -1.4507001186        0.5325186470       -1.2319644888
 H         -2.3940741108       -0.9087511835       -0.8840968312
 H         -0.7380940382       -1.6734000114        0.5247077417
 H         -0.8783601877       -0.2016267074        1.5066371634
