! r2scan-3c def2/J RI DEFGRID2 scfconv6 printgap
%output
    printlevel normal
end
%cpcm
    smd true
    smdsolvent "water"
end
* xyz 0 1
C -2.3585858753 0.7436972904 0.0052305763
C -0.8417918461 0.8819749515 -0.0405531526
C -0.0998033937 -0.3418208186 0.5083959287
H -0.4714463366 -0.5569579079 1.5166416783
C -0.294539816 -1.5755077187 -0.3697003927
C 1.396029981 -0.0276434949 0.6391670276
O 1.9306622704 0.2937009001 -0.629215185
H -2.6888297356 0.513786133 1.0159954417
H -2.8262379977 1.6746283117 -0.3057722882
H -2.7020879123 -0.0445497187 -0.6586448667
H -0.5503839402 1.7538905284 0.5504326545
H -0.5138261639 1.055365658 -1.0667908358
H 0.2439661347 -2.4232124771 0.0480236885
H 0.0903543115 -1.3787091316 -1.3672441515
H -1.3452294898 -1.8389521748 -0.4405508575
H 1.9128384516 -0.9026878239 1.0573875372
H 1.5299534006 0.8170374649 1.3300449635
H 2.8750904778 0.4732042766 -0.540106709
*
