! pbe def2-sv(p) def2/J RI DEFGRID1 loosescf d4 GCP(DFT/SV(P)) printgap
%output
    printlevel normal
end
* xyz 0 1
C 2.8646415364 -0.3782773398 -0.0806833168
C 1.419091965 -0.3506600695 0.4007675444
C 0.6450596551 0.8097469833 -0.220595335
C -0.7729370604 0.9432810926 0.3137934124
S -1.882713562 -0.4211726182 -0.205554178
H 3.3980088163 -1.2142566592 0.3645665607
H 3.3763222196 0.5416969063 0.1930460446
H 2.9031997352 -0.4828284766 -1.1625838173
H 1.400528658 -0.2559356285 1.4891465082
H 0.9371030169 -1.2934563571 0.1339380212
H 0.6088868881 0.6848322674 -1.3051168569
H 1.1685970208 1.7452420375 -0.0079019069
H -0.7932306152 0.9842280538 1.4015783425
H -1.2510992122 1.8369461062 -0.0866753431
H -1.3767543992 -1.3512313956 0.5944092482
*
