! pbe def2-sv(p) def2/J RI DEFGRID1 loosescf d4 GCP(DFT/SV(P)) printgap
%output
    printlevel normal
end
* xyz 0 1
C -3.3616956254 -0.2472023551 -0.6253095037
C -2.1647224607 -0.473978601 0.2909203042
C -0.976374751 0.3990060862 -0.1078517998
C 0.2526520415 0.1691162419 0.7780936067
C 0.9961994571 -1.1277757315 0.4179836402
C 2.1354231986 -0.7304466139 -0.5413382432
C 2.0605670438 0.7946959459 -0.6836724732
C 1.3174741026 1.2504623568 0.5685372423
H -4.2010706088 -0.867006774 -0.3194320657
H -3.6737126592 0.7944426853 -0.5938323481
H -3.1068396679 -0.49654391 -1.6530043394
H -2.4478538564 -0.2460482175 1.3213064328
H -1.8792707838 -1.5271772372 0.2549848244
H -0.7186475208 0.2003653443 -1.1493498864
H -1.2775832739 1.4470028111 -0.0339873567
H -0.0795413168 0.1521513538 1.8203315874
H 1.4060853799 -1.5837554252 1.3193494836
H 0.3257242674 -1.8527954154 -0.0399844428
H 3.0982293594 -1.0226212845 -0.1221085947
H 2.0356413206 -1.2222756578 -1.5080783592
H 3.0474306695 1.2478037797 -0.7665326222
H 1.4897364321 1.0678620604 -1.5714963176
H 2.0006973607 1.2591318626 1.4195714163
H 0.8882763846 2.245752742 0.4620043557
*
