  19
        -26.29546184
 C         -1.8973931386       -2.1968821739       -0.0005110263
 C         -0.9034906616       -1.0741539491        0.0007876868
 C          0.4590680509       -1.3197560500        0.0001900803
 C          1.3800027267       -0.2765089859       -0.0005690004
 C          0.9214804417        1.0284850119       -0.0006099289
 C         -0.4447622430        1.2905466523        0.0000296058
 C         -1.3509729132        0.2418758851        0.0006482612
 O         -0.8480697074        2.5929179127       -0.0000629809
 C          2.8487909398       -0.5758391255        0.0002445252
 H         -2.5136862735       -2.1561829182       -0.8981003549
 H         -1.3956397134       -3.1603353670        0.0312283114
 H         -2.5592252969       -2.1203246452        0.8613020740
 H          0.8175946436       -2.3391950459        0.0006066341
 H          1.6060464300        1.8620267796       -0.0013144939
 H         -2.4141693649        0.4479891618        0.0011800817
 H         -1.8118468200        2.6325877501        0.0002973762
 H          3.1190487730       -1.1394316298        0.8924781111
 H          3.1127430539       -1.1800863794       -0.8667284888
 H          3.4329118181        0.3401400410       -0.0224544606
