! wb97x-v def2-tzvp def2/J RIJCOSX DEFGRID2 scfconv7 GCP(DFT/TZ) printgap
%output
    printlevel normal
end
* xyz 0 1
C -2.5396199573945935 -0.18062029226765172 -0.49660637928452706
C -1.8485304760366748 -1.2792801530434412 0.0128444609579917
C -0.5738907660957889 -1.1167363156670846 0.5475640244330112
C 0.03361223897802724 0.14335312162604988 0.5830398366156091
C -0.6684848183247395 1.2369450609139734 0.0699767509620383
C -1.945724434308084 1.078595799319374 -0.46516215143977846
C 1.4301966087888294 0.2989723777432256 1.1264145092475268
C 2.4921281097705275 -0.22626406764019835 0.17146086753251633
O 2.4516253627393954 0.5605182906020622 -1.0347321245836196
H -3.534769907623335 -0.3059145945575598 -0.9118747087498554
H -2.306075098091568 -2.2639750161483154 -0.002979813035307303
H -0.04139249314904791 -1.976757170872602 0.9460085195742906
H -0.21019663298592334 2.222011906069918 0.0938274094933694
H -2.477018517684636 1.9407094648443401 -0.8571941041294926
H 1.6346344203455505 1.3531849670555747 1.3431497931715466
H 1.5318335799543086 -0.25865878771887046 2.064526420167553
H 3.481859897009413 -0.147222664416923 0.6415283325323982
H 2.3008704220004828 -1.2837162879637642 -0.059106123364230656
H 3.099687939793411 0.18611624998493934 -1.644193923167079
*
