  40
        -54.07158529
 C         -3.0946494081       -2.5207603218        1.3328178237
 N         -2.7432440733       -1.4069358707        0.4741194675
 C         -3.7646803716       -0.3811982122        0.5251201079
 C         -2.4789522269       -1.8502371287       -0.8876690997
 C         -1.6306745535       -0.8643796542       -1.7031836212
 O         -0.2533826136       -0.9402715582       -1.4301756953
 C          0.1189421914       -0.4339731263       -0.1560810671
 C          1.5927109806       -0.6814894616        0.0686556664
 C          2.4414509599       -0.9912285871       -0.9835108889
 C          3.7944170231       -1.1764998755       -0.7571934198
 C          4.3118154581       -1.0467133970        0.5195923970
 C          3.4685596394       -0.7342214469        1.5731958469
 C          2.1164535178       -0.5530888162        1.3493972991
 C         -0.1255989340        1.0592930016       -0.0478955927
 C         -0.7817138444        1.5971251239        1.0497885007
 C         -0.9846216998        2.9633245693        1.1405582151
 C         -0.5388000502        3.8007845623        0.1323825095
 C          0.1131197948        3.2680031051       -0.9674743518
 C          0.3222832556        1.9039438594       -1.0553137928
 H         -3.2389508111       -2.1528926525        2.3480210415
 H         -2.2794629647       -3.2432524767        1.3396934408
 H         -4.0161578817       -3.0317785911        1.0130513694
 H         -4.7348790742       -0.7361319649        0.1412643274
 H         -3.4534926610        0.4817175495       -0.0596798917
 H         -3.8957314635       -0.0623578052        1.5581163278
 H         -3.4203614371       -2.0386966428       -1.4343073429
 H         -1.9224996740       -2.7895813973       -0.8384004342
 H         -1.9916518944        0.1634426096       -1.5672572225
 H         -1.7162056663       -1.1254222042       -2.7618285994
 H         -0.4627035523       -0.9441624789        0.6243884451
 H          2.0290435351       -1.0966390567       -1.9742154543
 H          4.4476039426       -1.4215017676       -1.5823734980
 H          5.3681582803       -1.1893424148        0.6951771345
 H          3.8665570511       -0.6329306332        2.5725561641
 H          1.4596188711       -0.3078194245        2.1718651975
 H         -1.1411310820        0.9414804529        1.8295322496
 H         -1.4967639976        3.3754049717        1.9981935830
 H         -0.7006453745        4.8665979891        0.2023992165
 H          0.4611860522        3.9182249871       -1.7569987031
 H          0.8282952667        1.4786160204       -1.9094142033
