  17
        -22.01905320
 C         -1.8417421117        0.0000972584       -0.0749014218
 C         -1.0541049760        1.2499459731        0.3009038529
 C          0.3048682218        1.2643403077       -0.4038862977
 C          1.0736439187       -0.0000474070       -0.0981336493
 O          2.1916387183       -0.0000519807        0.3504309420
 C          0.3047133343       -1.2643982494       -0.4038282514
 C         -1.0542760187       -1.2498855240        0.3008680181
 H         -2.0398978689        0.0001493439       -1.1494277281
 H         -2.8029368012        0.0001585721        0.4428098173
 H         -1.6137885845        2.1468017842        0.0280227645
 H         -0.8971969435        1.2696933347        1.3816463811
 H          0.1519050565        1.3163462398       -1.4847684693
 H          0.8931346780        2.1295681035       -0.0947541112
 H          0.1517357809       -1.3163023952       -1.4847436130
 H          0.8928287118       -2.1298146424       -0.0947327799
 H         -1.6140182292       -2.1466496224        0.0278408260
 H         -0.8975342844       -1.2697495299        1.3815913192
