  16
        -19.86073329
 C         -2.5245134554        0.0646227544       -0.0663269061
 C         -1.2654572257       -0.7680417053        0.1360144295
 C         -0.0000159825        0.0578633621        0.0005836415
 O          0.0001247878        1.2610341884        0.0007750688
 C          1.2652195549       -0.7683305198       -0.1348933695
 C          2.5246399119        0.0646147510        0.0639920268
 H         -3.4136116030       -0.5373331343        0.1036637758
 H         -2.5287605339        0.9048140823        0.6229450948
 H         -2.5562130368        0.4595177402       -1.0787369312
 H         -1.2607209235       -1.1969977593        1.1423764862
 H         -1.2283157606       -1.5987774178       -0.5715778762
 H          1.2590072542       -1.1993716840       -1.1403406916
 H          1.2288890213       -1.5976346350        0.5744564439
 H          2.5265308993        0.9049620879       -0.6251331844
 H          3.4134128935       -0.5370456324       -0.1088440497
 H          2.5593166947        0.4592889959        1.0763972316
  16
        -19.86065335
 C         -2.5238853797        0.0891561001        0.0012353736
 C         -1.2738034523       -0.7804079473        0.0043363943
 C          0.0000052187        0.0445987472       -0.0001553060
 O          0.0000455717        1.2476597374       -0.0002019916
 C          1.2737471517       -0.7805086787       -0.0045224896
 C          2.5238897458        0.0889536747       -0.0007276776
 H         -2.5334572489        0.7343087735        0.8759265163
 H         -2.5380077632        0.7218710760       -0.8824409795
 H         -3.4190884488       -0.5276450581        0.0078570329
 H         -1.2599803993       -1.4240028559        0.8873351049
 H         -1.2613434764       -1.4331523893       -0.8718844518
 H          1.2601403927       -1.4238040172       -0.8877501518
 H          1.2609885080       -1.4335477959        0.8714694748
 H          3.4190513307       -0.5279280659       -0.0049041096
 H          2.5365447832        0.7230213500        0.8819993779
 H          2.5349856219        0.7327683920       -0.8763831118
  16
        -19.86044030
 C         -2.3444441703       -0.0959720555       -0.4600359953
 C         -1.0666137150       -0.7620308795        0.0311279584
 C          0.0307929618        0.2361800646        0.3311169605
 O         -0.1492862050        1.4263305265        0.3569444002
 C          1.3946195797       -0.3809505639        0.5765160798
 C          2.1553528971       -0.4656200830       -0.7491395283
 H         -2.6878798559        0.6332095033        0.2690078149
 H         -2.1604521283        0.4257251153       -1.3958883466
 H         -3.1264588534       -0.8346947745       -0.6169607250
 H         -1.2597240431       -1.3137666921        0.9559557632
 H         -0.6951337648       -1.4811438885       -0.7022243338
 H          1.2912030695       -1.3761152752        1.0102686465
 H          1.9498347850        0.2583917933        1.2644446763
 H          3.1539284989       -0.8625598000       -0.5833242090
 H          2.2436295319        0.5231810208       -1.1926640287
 H          1.6384406825       -1.1151559531       -1.4522578584
  16
        -19.86020560
 C         -2.0866276685       -0.9962272349        0.4558174980
 C         -1.4697553899        0.0284609998       -0.4920172823
 C         -0.0448571082        0.4199954831       -0.1480542183
 O          0.3041512918        1.5727734104       -0.1202889749
 C          0.9007284215       -0.7283876855        0.1346890583
 C          2.3584915960       -0.2863273222        0.1290546288
 H         -1.5708642406       -1.9512440304        0.4003206999
 H         -2.0483618625       -0.6369471510        1.4816826062
 H         -3.1290852792       -1.1587658298        0.1916966082
 H         -1.4567401232       -0.3760812473       -1.5082192296
 H         -2.0727911556        0.9385337631       -0.5033538285
 H          0.7317015140       -1.5198199187       -0.5980883438
 H          0.6402127371       -1.1279012828        1.1184715214
 H          2.5048185075        0.5218778997        0.8406812042
 H          2.6383216891        0.0787022754       -0.8560477719
 H          3.0104971467       -1.1146333178        0.3950559824
  16
        -19.86012570
 C         -2.4536118227        0.0131110486        0.3012840218
 C         -1.1690108817       -0.7713049200        0.0745859897
 C          0.0115847312        0.1222602232       -0.2375795173
 O         -0.0676870574        1.3223592151       -0.2942663523
 C          1.3231384136       -0.6104666770       -0.4623920188
 C          2.3615771789       -0.1505423515        0.5610198546
 H         -2.7023785626        0.5884343822       -0.5867744428
 H         -3.2778291424       -0.6582180254        0.5292686550
 H         -2.3260873924        0.7087901717        1.1267428645
 H         -0.9149394336       -1.3588651369        0.9610133988
 H         -1.2868798275       -1.4728855989       -0.7556651460
 H          1.6782509659       -0.3573607012       -1.4640155128
 H          1.1792475106       -1.6894979363       -0.4034625656
 H          2.0572495489       -0.4344288704        1.5662510460
 H          2.4614027382        0.9311215492        0.5233840514
 H          3.3284219932       -0.6010481008        0.3511185651
  16
        -19.86003045
 C         -2.3773249649       -0.1881442094       -0.2709609793
 C         -0.9700430451       -0.7467673551       -0.1077995619
 C          0.0367606116        0.3280857791        0.2448056801
 O         -0.2330343783        1.5017885302        0.2419932956
 C          1.4257920569       -0.1750529038        0.5932233555
 C          2.1466698565       -0.7349003321       -0.6339215771
 H         -3.0702781257       -0.9746812614       -0.5593470406
 H         -2.7166506986        0.2551565957        0.6618401283
 H         -2.3851598060        0.5867686739       -1.0329596477
 H         -0.9469378540       -1.5171709434        0.6659534785
 H         -0.6438071061       -1.2121693657       -1.0412532297
 H          1.3498569074       -0.9497923255        1.3583371485
 H          1.9966604565        0.6631315377        0.9966524327
 H          3.1731047485       -0.9855508593       -0.3768425677
 H          2.1637467871        0.0042467150       -1.4315370665
 H          1.6581685814       -1.6340846001       -1.0009283239
  16
        -19.85982932
 C         -2.1767454996       -0.6896907802        0.3411462721
 C         -1.0841697756       -0.3575771039       -0.6786168298
 C         -0.0000239761        0.4520460631        0.0004219377
 O         -0.0000155660        1.6567124140        0.0019812069
 C          1.0839892234       -0.3593616406        0.6775670967
 C          2.1769583657       -0.6889535057       -0.3425456990
 H         -1.7784954064       -1.2903667679        1.1559623399
 H         -2.5903692872        0.2255406008        0.7576971301
 H         -2.9783736638       -1.2462734202       -0.1382461107
 H         -0.6685192523       -1.2791865494       -1.0870893252
 H         -1.5161303782        0.2351981806       -1.4861746998
 H          0.6681588464       -1.2819927817        1.0835418455
 H          1.5156732445        0.2313225264        1.4868061950
 H          2.5914733478        0.2273048227       -0.7559354332
 H          1.7788428847       -1.2868124719       -1.1595070054
 H          2.9778874000       -1.2475847017        0.1356535107
  16
        -19.85954501
 C         -1.7680266620       -1.1245785680        0.3252345582
 C         -1.1299340297       -0.1146986562       -0.6265175289
 C         -0.0000615378        0.6741769836        0.0024526866
 O          0.0013479614        1.8801548206        0.0051165449
 C          1.1281497149       -0.1202794143        0.6272635434
 C          1.7683885883       -1.1207364114       -0.3330512762
 H         -1.0704064549       -1.9116087288        0.5987970607
 H         -2.1070199523       -0.6286594532        1.2319761169
 H         -2.6292498777       -1.5860259461       -0.1525938858
 H         -0.7361578993       -0.6324494859       -1.5040738477
 H         -1.8825293322        0.5997635319       -0.9658572005
 H          0.7324911727       -0.6466740338        1.4987451980
 H          1.8799211631        0.5910019632        0.9749958371
 H          2.1110708776       -0.6154395574       -1.2331655246
 H          1.0707775372       -1.9038218882       -0.6176892229
 H          2.6273889711       -1.5884288611        0.1426777050
  16
        -19.85950585
 C         -2.3322626327       -0.3368449601        0.0517344790
 C         -0.8600821902       -0.7257444856        0.0739715117
 C          0.0480997259        0.4771830099       -0.0435313925
 O         -0.3782479268        1.6019850076       -0.1338370451
 C          1.5455163261        0.2226033917       -0.0467170941
 C          2.0182715446       -1.2165660677        0.0956378074
 H         -2.5552658768        0.3363567374        0.8754414137
 H         -2.5698017486        0.1789205808       -0.8752240141
 H         -2.9614442859       -1.2193926660        0.1363768787
 H         -0.6180954964       -1.2468316896        1.0029989787
 H         -0.6341976468       -1.4065803046       -0.7498169281
 H          1.9656392555        0.8321441697        0.7584516912
 H          1.9285670360        0.6470511545       -0.9793330437
 H          3.1057743558       -1.2428919253        0.0800516480
 H          1.6570191613       -1.8357533928       -0.7216862640
 H          1.6864799409       -1.6518097757        1.0350242244
  16
        -19.85939684
 C         -2.1936220917       -0.7254983996       -0.4433338625
 C         -1.2447543309       -0.2764497088        0.6695207669
 C         -0.0242849862        0.3930597442        0.0755929240
 O          0.1389199628        1.5861498077        0.1133871487
 C          0.9853560572       -0.5350927521       -0.5720815648
 C          2.3168207981       -0.4452912671        0.1756563852
 H         -1.7110299517       -1.4411988548       -1.1047192468
 H         -3.0759519955       -1.1933058865       -0.0136225137
 H         -2.5099942054        0.1308091307       -1.0341780687
 H         -1.7563756577        0.4355557408        1.3188704832
 H         -0.9320321430       -1.1397420313        1.2598991993
 H          1.1368619848       -0.2058054274       -1.6024560068
 H          0.6242517296       -1.5631664007       -0.5772149503
 H          3.0727707792       -1.0471587322       -0.3226749508
 H          2.2052876470       -0.8032241613        1.1971360175
 H          2.6534684066        0.5878332717        0.2069280555
  16
        -19.85919824
 C         -1.9533286518       -0.9634604639        0.3456941486
 C         -1.0996505835       -0.2050670108       -0.6716237390
 C          0.0000925335        0.5924944407       -0.0010426688
 O         -0.0034682446        1.7981005822        0.0008293377
 C          1.1033958623       -0.2005639866        0.6691555150
 C          1.9533410230       -0.9687728233       -0.3436868843
 H         -2.3358722350       -0.2815788373        1.1016441168
 H         -2.7989411805       -1.4275949405       -0.1563614487
 H         -1.3802808930       -1.7447302351        0.8385835110
 H         -0.6587058069       -0.9101218626       -1.3775903090
 H         -1.7296043930        0.4940797611       -1.2246337937
 H          0.6639880256       -0.8991070032        1.3827269227
 H          1.7354584584        0.5025753198        1.2146934716
 H          2.3363917287       -0.2937236050       -1.1055524136
 H          1.3780574810       -1.7526286681       -0.8295483476
 H          2.7986816287       -1.4308878167        0.1607919130
  16
        -19.85815068
 C         -1.8511428778       -0.4100624870        0.9811824244
 C         -1.2928174283       -0.5002264894       -0.4415782920
 C         -0.0038939728        0.2924551734       -0.5376877237
 O         -0.0080290943        1.4946674960       -0.6257305412
 C          1.2908817198       -0.4931853769       -0.4666746778
 C          1.8643472850       -0.4170199372        0.9509583947
 H         -2.8239585431       -0.8932354097        1.0318968161
 H         -1.1870906578       -0.8984974895        1.6901488575
 H         -1.9630927641        0.6317893501        1.2710148160
 H         -1.1341148976       -1.5426488215       -0.7165805362
 H         -2.0156212214       -0.0547867103       -1.1279842255
 H          2.0032381152       -0.0352036925       -1.1556585526
 H          1.1349685525       -1.5331929855       -0.7522957877
 H          1.9725894603        0.6218646819        1.2526049197
 H          2.8409696213       -0.8939769932        0.9847414502
 H          1.2116825890       -0.9190335487        1.6609787084
  16
        -19.85758310
 C         -1.6803082808       -1.3118059354        0.3468850996
 C         -1.4372308537        0.1652741682        0.0712982420
 C         -0.0261440853        0.6058664906       -0.2688067116
 O          0.2581911063        1.7792486297       -0.2641785427
 C          1.0117497261       -0.4439283258       -0.6037864574
 C          1.8460067935       -0.7447456553        0.6447234436
 H         -1.0374601392       -1.6755775417        1.1440132167
 H         -2.7133264779       -1.4541200408        0.6573687312
 H         -1.5153849554       -1.9180292130       -0.5403713834
 H         -2.0596172221        0.4863807524       -0.7704064685
 H         -1.7547413963        0.7629226282        0.9298153033
 H          1.6702397431       -0.0302602083       -1.3699141403
 H          0.5536709843       -1.3559310630       -0.9799170196
 H          2.6347907575       -1.4537222219        0.4048721267
 H          1.2300074674       -1.1676982098        1.4344431285
 H          2.3006443465        0.1705388365        1.0157253677
