  16
        -19.86073329
 C         -2.5245134554        0.0646227544       -0.0663269061
 C         -1.2654572257       -0.7680417053        0.1360144295
 C         -0.0000159825        0.0578633621        0.0005836415
 O          0.0001247878        1.2610341884        0.0007750688
 C          1.2652195549       -0.7683305198       -0.1348933695
 C          2.5246399119        0.0646147510        0.0639920268
 H         -3.4136116030       -0.5373331343        0.1036637758
 H         -2.5287605339        0.9048140823        0.6229450948
 H         -2.5562130368        0.4595177402       -1.0787369312
 H         -1.2607209235       -1.1969977593        1.1423764862
 H         -1.2283157606       -1.5987774178       -0.5715778762
 H          1.2590072542       -1.1993716840       -1.1403406916
 H          1.2288890213       -1.5976346350        0.5744564439
 H          2.5265308993        0.9049620879       -0.6251331844
 H          3.4134128935       -0.5370456324       -0.1088440497
 H          2.5593166947        0.4592889959        1.0763972316
