  26
        -51.26970886
 C          3.1421674709       -2.0917838958        1.3109440954
 O          2.2461629522       -0.9870070466        1.3171506504
 P          2.2074118211        0.0084261839        0.0742355923
 S          2.2446619233       -0.7639220419       -1.7141540194
 O          3.3942590747        1.0098445100        0.4249225912
 C          3.9436230509        1.8791395512       -0.5570700814
 O          0.9460828530        0.9243862048        0.4757024487
 C         -0.3679001793        0.5964925718        0.3128180623
 C         -1.2908591954        1.6373610889        0.4125748359
 C         -2.6364007908        1.3742278241        0.2756975399
 C         -3.0562267917        0.0700416952        0.0340377459
 C         -2.1399031444       -0.9692696895       -0.0701620901
 C         -0.7930459472       -0.7046588180        0.0729421972
 N         -4.4638229194       -0.2066659493       -0.1066132214
 O         -4.7947205285       -1.3580076344       -0.2886535906
 O         -5.2298121093        0.7296700242       -0.0308811621
 H          4.1317608478       -1.7757736590        1.6417977166
 H          3.2139298952       -2.5191284278        0.3072084978
 H          2.7350278360       -2.8274446821        2.0030336833
 H          3.8872702201        1.4192263155       -1.5473220050
 H          4.9842066676        2.0471208835       -0.2830717119
 H          3.4028141166        2.8259482134       -0.5638667906
 H         -0.9340627588        2.6374606838        0.5993593616
 H         -3.3721112442        2.1602815387        0.3503936961
 H         -2.4949386398       -1.9703188737       -0.2614092709
 H         -0.0644288455       -1.4965669214       -0.0059123152
