  22
  -46.9593043200000       0.500007936461967      !md1
 C         -5.0599991472       -0.6835652284        0.0308496595
 C         -4.3038511326       -1.3714514591       -0.9034374089
 C         -2.9257655794       -1.2576494069       -0.9006069735
 C         -2.2897757596       -0.4426720364        0.0314574255
 C         -3.0548787459        0.2407946872        0.9715051740
 C         -4.4322468284        0.1171901222        0.9702262180
 C         -0.8192768048       -0.3353778252        0.0255037038
 C         -0.0492141723       -1.4927152873        0.0684176731
 C          1.3333465167       -1.4327829909        0.0698949087
 C          1.9834714868       -0.2011687035        0.0226845253
 C          1.2240785513        0.9663841413       -0.0350735508
 C         -0.1678130676        0.8982968707       -0.0339556000
 Cl        -1.0671709214        2.3590623990       -0.1628148499
 Cl         2.0139635392        2.4875416405       -0.1142027272
 Cl         3.6963676438       -0.1156367358        0.0281148445
 Cl         2.2532631502       -2.8822783898        0.1330417849
 H         -6.1359961145       -0.7730721605        0.0281491338
 H         -4.7888055686       -1.9981203525       -1.6370620857
 H         -2.3343688571       -1.7843599095       -1.6349531301
 H         -2.5674842937        0.8533903398        1.7144111235
 H         -5.0175637280        0.6482607540        1.7059418265
 H         -0.5384799693       -2.4526179471        0.1157415251
  22
  -46.9593042900000       0.499992063538033      !md3
 C         -5.0603797737       -0.6753213391        0.0873305898
 C         -4.4164251280       -0.1737175984       -1.0312975257
 C         -3.0389777201       -0.0524273896       -1.0465125450
 C         -2.2899859467       -0.4383863152        0.0608353008
 C         -2.9419939811       -0.9557403736        1.1764202446
 C         -4.3202111628       -1.0669967722        1.1903438255
 C         -0.8194755478       -0.3306728154        0.0583423621
 C         -0.0514395040       -1.4512109812        0.3561536925
 C          1.3311398846       -1.3911510556        0.3582262669
 C          1.9830840069       -0.1950460698        0.0650857342
 C          1.2255235259        0.9396600026       -0.2209546466
 C         -0.1663374021        0.8708239888       -0.2239773389
 Cl        -1.0645184328        2.3061895411       -0.5275174041
 Cl         2.0173019767        2.4227162724       -0.5632968387
 Cl         3.6961880351       -0.1108349494        0.0612587363
 Cl         2.2487878047       -2.7973635285        0.7211988394
 H         -6.1364446832       -0.7629570913        0.0987472871
 H         -4.9891946266        0.1249361242       -1.8965432159
 H         -2.5387944569        0.3246367293       -1.9253108049
 H         -2.3631237815       -1.2505681425        2.0392033973
 H         -4.8177771936       -1.4601966734        2.0643310090
 H         -0.5420034630       -2.3862830228        0.5751110087
