! pbe def2-sv(p) def2/J RI DEFGRID1 loosescf d4 GCP(DFT/SV(P)) printgap
%output
    printlevel normal
end
* xyz 0 1
C -2.763515938 0.2711762931 -0.0036319022
C -1.3469338128 -0.0192552274 -0.4836411921
C -0.3315478244 0.1415050061 0.660213191
C 1.0525026837 -0.1451413503 0.1385108043
O 1.5687034914 -1.2394141148 0.1813667878
O 1.698243545 0.8687773434 -0.4335920931
H -3.4681648746 0.1438063412 -0.8207595295
H -2.8423722775 1.2909751233 0.3643462545
H -3.0407760272 -0.4076312612 0.7986398423
H -1.2863642506 -1.0405139165 -0.8646270623
H -1.0936508939 0.6554779294 -1.3034222403
H -0.3913737434 1.1495893012 1.0710263384
H -0.558680207 -0.580742945 1.444337152
H 1.2135648337 1.7137009867 -0.3971621874
*
