! pbe def2-sv(p) def2/J RI DEFGRID1 loosescf d4 GCP(DFT/SV(P)) printgap
%output
    printlevel normal
end
* xyz 0 1
C 2.7042524045 -0.3325506201 0.2726496794
C 1.3406621508 -0.7198982061 -0.2904804755
C 0.2380416168 0.2268388579 0.2022513893
H 0.2258014788 0.2261142227 1.298685233
C -1.1647265623 -0.1571164148 -0.3154356186
C -1.5526562153 -1.5884473992 0.0489684777
C -2.199509346 0.817214722 0.2491454497
O 0.5434064236 1.5682330638 -0.1421811986
H 3.4844057615 -0.9542954592 -0.1586154244
H 2.7152509334 -0.4596283116 1.3526991695
H 2.9237195477 0.7095772841 0.0534277506
H 1.3698158809 -0.6887223604 -1.3827887168
H 1.1045887958 -1.7375387965 0.0156046336
H -1.1548570834 -0.0619987615 -1.4082657647
H -2.5996731139 -1.7544435464 -0.1928577499
H -0.9616162915 -2.3156461655 -0.499967991
H -1.4163974158 -1.7575134028 1.1146985238
H -2.3148384735 0.6590060622 1.3192201579
H -3.1639618165 0.6699431833 -0.2300398897
H -1.8813534313 1.8446068148 0.0902931846
H 0.5976081124 1.6280937476 -1.1064031107
*
