! r2scan-3c def2/J RI DEFGRID2 scfconv6 printgap
%output
    printlevel normal
end
* xyz 0 1
C -2.4219972881 0.7582351063 0.6168272571
C -1.2847838884 -0.1709334277 0.1918822964
C -1.6757961506 -0.9138493111 -1.0839906018
C -0.0001620705 0.6450925662 0.0028398933
C 1.2836355763 -0.1711920632 -0.1908718445
C 2.4200465162 0.7570710496 -0.6197622182
C 1.6789138201 -0.9144780934 1.083433675
H -3.3420892395 0.1959151679 0.7585421486
H -2.1803992114 1.2604115199 1.5508060438
H -2.5964416537 1.5151270845 -0.1450921939
H -1.130237313 -0.9044133454 0.9894691838
H -1.8072765675 -0.2113620811 -1.9044455035
H -0.9158683346 -1.6368022779 -1.3676801501
H -2.611551501 -1.4484812754 -0.93721658
H 0.1358341178 1.2901980422 0.8748125956
H -0.1357209981 1.294941633 -0.8657005655
H 1.125792499 -0.9043994191 -0.9879786488
H 2.6002419085 1.5115776343 0.1431559988
H 3.3382619668 0.1934952745 -0.7683466568
H 2.173968085 1.2622881956 -1.5509176773
H 2.6080366526 -1.458707369 0.9296820591
H 1.8247885793 -0.2109637012 1.9005710904
H 0.9143709002 -1.6290109378 1.3760671716
*
