! pbe def2-sv(p) def2/J RI DEFGRID1 loosescf d4 GCP(DFT/SV(P)) printgap
%output
    printlevel normal
end
* xyz 0 1
C 1.8163924088 -1.2721569169 -0.0126558464
O 1.1940583931 -0.2606108313 -0.8194304718
S -0.0280319004 0.4503037549 -0.155829514
O -0.4552119698 1.4433988311 -1.0893399716
O 0.2998987126 0.8772834002 1.1743495189
O -1.0947391222 -0.7007822052 -0.106432354
C -1.6986887901 -1.0694588319 1.1439832082
H 1.2134056537 -2.1786265945 -0.0496510822
H 1.8957552203 -0.9024709311 1.0090631676
H 2.7990154325 -1.4407244463 -0.4458077575
H -2.7488403433 -0.7833478493 1.1131530262
H -1.1852509048 -0.5453035221 1.9477694503
H -1.5960863431 -2.1481952942 1.2488898133
*
