! pbe def2-sv(p) def2/J RI DEFGRID1 loosescf d4 GCP(DFT/SV(P)) printgap
%output
    printlevel normal
end
* xyz 0 1
C -2.6798529971 0.3846168799 0.9504708591
C -2.1529427193 0.4106333505 -0.4794640833
C -0.8684179115 -0.392583323 -0.6239838759
O 0.1698207985 0.2710534904 0.1119047693
C 1.4111686924 -0.1737717842 -0.031990839
O 1.6991843883 -1.1150536835 -0.7437872548
C 2.3859075632 0.628707124 0.7760472888
H -1.9320398622 0.7824031284 1.6313772051
H -3.5801288911 0.9871466076 1.0306880039
H -2.9159260917 -0.6334870414 1.2506520761
H -1.9539116253 1.4396409704 -0.7807283352
H -2.8924442901 -0.0121215764 -1.1595108921
H -0.9827744498 -1.4060532722 -0.2247990729
H -0.5551877302 -0.4714200163 -1.6704852213
H 3.3745752093 0.1897198223 0.6951764579
H 2.0618980989 0.652783878 1.8124064131
H 2.39869228 1.6491195134 0.4019150708
*
