! pbe def2-sv(p) def2/J RI DEFGRID1 loosescf d4 GCP(DFT/SV(P)) printgap
%output
    printlevel normal
end
* xyz 0 1
C 2.3089810046 -1.0136831281 -0.6063933553
C 1.5925611289 0.3149456713 -0.3984640106
C 0.3521706709 0.2064660083 0.501547526
H 0.6360613431 -0.3366055103 1.4119031229
C -0.8290734377 -0.5453285221 -0.1517216218
C -1.8680101136 -0.8887531293 0.9153566661
C -1.4868569955 0.251175927 -1.2786621134
O -0.0325091558 1.4862997222 0.9745338606
H 1.6878116129 -1.7141940087 -1.1579497606
H 2.5659121169 -1.4607864143 0.35102057
H 3.2251095471 -0.8562748087 -1.1698217289
H 2.2769493351 1.0167888713 0.0845586629
H 1.312967411 0.7365072241 -1.3658973448
H -0.4328033716 -1.4770971155 -0.5645095446
H -2.1924583157 0.018596678 1.4205613017
H -2.7337684911 -1.3684020496 0.465795769
H -1.4459730501 -1.5608926951 1.6588458398
H -0.7631500468 0.5474612058 -2.0337639152
H -1.9759371027 1.1389860818 -0.8839297267
H -2.2449840986 -0.3600929736 -1.7620068818
H -0.2311527037 2.0453370458 0.2108227304
*
