  15
  -15.7725795800000       8.149839033428798E-002 !mtd2
 C          1.1965863349        1.2559661519       -0.0380130807
 C          0.3996196971        0.0000116200        0.3205147894
 C          1.1953715938       -1.2566303346       -0.0382750977
 C         -0.9091843422        0.0005720294       -0.4107726879
 C         -2.0945003037        0.0001787748        0.1680821068
 H          0.6351604601        2.1501422761        0.2238460702
 H          1.4052828173        1.2806621743       -1.1056833789
 H          2.1428713830        1.2712054830        0.4983517079
 H          0.2057082854       -0.0000293294        1.3983671873
 H          1.4039331668       -1.2814356987       -1.1059722769
 H          2.1416881854       -1.2726347739        0.4979900316
 H          0.6332158999       -2.1503471345        0.2236240867
 H         -0.8291959200        0.0014305849       -1.4906245952
 H         -3.0100749722        0.0005209547       -0.3992114973
 H         -2.2009403148       -0.0006852679        1.2410080158
  15
  -15.7725795600000       8.149666552902550E-002 !mtd9
 C          1.1962537209        1.2559022887       -0.0380086968
 C          0.3995820173       -0.0002192337        0.3205908635
 C          1.1957084169       -1.2566048514       -0.0383390452
 C         -0.9091754276        0.0003608005       -0.4107587752
 C         -2.0944805648        0.0006049086        0.1680628651
 H          0.6339813768        2.1499492290        0.2224732410
 H          1.4063053492        1.2799386045       -1.1054391380
 H          2.1418122935        1.2719681042        0.4995602896
 H          0.2055876413       -0.0003455106        1.3984453703
 H          2.1418072380       -1.2726261990        0.4983174716
 H          0.6336195643       -2.1504921582        0.2230699789
 H          1.4047812932       -1.2811244190       -1.1059469359
 H         -0.8291713306        0.0008597817       -1.4906254613
 H         -3.0100460736        0.0011946233       -0.3992313615
 H         -2.2009709551        0.0001546424        1.2409386480
  15
  -15.7725795600000       8.149666552902550E-002 !mtd1
 C          1.1962096003        1.2559056108       -0.0379224306
 C          0.3995447838       -0.0002720243        0.3204833471
 C          1.1958075573       -1.2565532904       -0.0383429450
 C         -0.9092460183        0.0001245774       -0.4108788552
 C         -2.0944503372        0.0008141518        0.1681303959
 H          2.1423279286        1.2714288026        0.4987853888
 H          0.6344118875        2.1499431825        0.2237637418
 H          1.4052954723        1.2807100470       -1.1055405021
 H          0.2054828182       -0.0003614855        1.3983163111
 H          0.6335750590       -2.1504769018        0.2228524736
 H          1.4050987864       -1.2809092019       -1.1059417176
 H          2.1417627213       -1.2726440518        0.4986100719
 H         -0.8292396875       -0.0001581296       -1.4907043759
 H         -3.0102777112        0.0009417796       -0.3987413575
 H         -2.2004618327        0.0012992375        1.2410879989
  15
  -15.7725795200000       8.149321602800942E-002 !mtd12
 C          1.1962699134        1.2558462643       -0.0379411688
 C          0.3995778761       -0.0003018485        0.3205806458
 C          1.1959106974       -1.2564686213       -0.0384161369
 C         -0.9092397169       -0.0000272756       -0.4106962408
 C         -2.0946400817        0.0009133669        0.1680334369
 H          0.6345818417        2.1497503920        0.2242326934
 H          1.4047532853        1.2808805931       -1.1056482389
 H          2.1426482431        1.2712572273        0.4982646579
 H          0.2056812435       -0.0005057622        1.3984445759
 H          0.6346994593       -2.1503679053        0.2248091483
 H          1.4030969413       -1.2818624547       -1.1063706677
 H          2.1429266431       -1.2714708049        0.4966561342
 H         -0.8291865084       -0.0003109361       -1.4905416108
 H         -3.0101559951        0.0015618649       -0.3993669599
 H         -2.2012258502        0.0015219875        1.2409235815
  15
  -15.7725795200000       8.149321602800942E-002 !mtd1
 C          1.1968970027        1.2559147316       -0.0380061264
 C          0.3995482798        0.0001811648        0.3203810966
 C          1.1952297542       -1.2566053963       -0.0381684831
 C         -0.9092971152        0.0008574304       -0.4108529928
 C         -2.0945117331       -0.0001982245        0.1681483568
 H          1.4069532202        1.2797529306       -1.1054192216
 H          2.1424882496        1.2716812514        0.4995865828
 H          0.6350363613        2.1502245621        0.2224119026
 H          0.2055339122        0.0002555074        1.3982022533
 H          2.1408331861       -1.2735507530        0.4993396574
 H          0.6322523582       -2.1502354743        0.2222640081
 H          1.4052431087       -1.2807348871       -1.1055995462
 H         -0.8294144897        0.0022702424       -1.4907351370
 H         -3.0101924149        0.0001442788       -0.3989920858
 H         -2.2007652320       -0.0015916840        1.2410442433
  15
  -15.7725795100000       8.149235367549260E-002 !md1
 C          1.1970820493        1.2558642294       -0.0381458055
 C          0.3995573698        0.0002741516        0.3204855831
 C          1.1950709285       -1.2566271091       -0.0381269407
 C         -0.9092393001        0.0013157483       -0.4107951015
 C         -2.0946106628       -0.0006258935        0.1681058554
 H          2.1432210538        1.2709520813        0.4984106380
 H          0.6359895233        2.1503432164        0.2232473063
 H          1.4061014082        1.2801872610       -1.1057164165
 H          0.2055905996        0.0004153647        1.3983305381
 H          2.1408131911       -1.2734676846        0.4992563094
 H          0.6320900775       -2.1501050055        0.2229276483
 H          1.4047898741       -1.2812094189       -1.1055710950
 H         -0.8292806942        0.0039123898       -1.4906982036
 H         -3.0100971661        0.0000956284       -0.3993595957
 H         -2.2011804433       -0.0035206304        1.2410164583
  15
  -15.7725795100000       8.149235367549260E-002 !mtd10
 C          1.1964217049        1.2559219871       -0.0380238568
 C          0.3996247357       -0.0001186667        0.3205584194
 C          1.1955465264       -1.2566231004       -0.0382913028
 C         -0.9091795219        0.0005290261       -0.4107346294
 C         -2.0945100051        0.0003544552        0.1680603360
 H          2.1430875705        1.2709444500        0.4976690612
 H          0.6351732641        2.1499802831        0.2245265368
 H          1.4043299864        1.2809556628       -1.1058177014
 H          0.2057597160       -0.0001504215        1.3984140264
 H          1.4024251082       -1.2824516610       -1.1063136351
 H          2.1427131936       -1.2715116575        0.4965035948
 H          0.6343449975       -2.1503879820        0.2254081625
 H         -0.8291970130        0.0013576693       -1.4906353006
 H         -3.0099723350        0.0008814514       -0.3994440443
 H         -2.2011401475       -0.0003769134        1.2409921508
  15
  -15.7725794700000       8.148890435698390E-002 !mtd1
 C          1.1969973031        1.2558008334       -0.0381270857
 C          0.3995496102        0.0002245535        0.3205856740
 C          1.1951318379       -1.2565521411       -0.0382249702
 C         -0.9092537179        0.0010071047       -0.4107063990
 C         -2.0945554720       -0.0004101022        0.1680354950
 H          1.4040689344        1.2813259035       -1.1060863206
 H          2.1441215121        1.2698379370        0.4967865097
 H          0.6366510160        2.1501561847        0.2253708301
 H          0.2056132266        0.0003569032        1.3984429757
 H          0.6327080013       -2.1500493720        0.2237206667
 H          1.4036720863       -1.2815729154       -1.1059117219
 H          2.1414638759       -1.2729080143        0.4979991419
 H         -0.8292458651        0.0027512480       -1.4905356659
 H         -3.0100877508        0.0007059760       -0.3993200647
 H         -2.2010369680       -0.0014409895        1.2409110089
  15
  -15.7725794700000       8.148890435698390E-002 !mtd11
 C          1.1955343682        1.2558772847       -0.0378095376
 C          0.3995428407       -0.0007736050        0.3204810476
 C          1.1965684111       -1.2565337750       -0.0384667567
 C         -0.9092535475       -0.0005584977       -0.4107996265
 C         -2.0945125086        0.0018684977        0.1680954905
 H          1.4054808156        1.2801215601       -1.1052267180
 H          2.1411499188        1.2724716810        0.4997050903
 H          0.6326901963        2.1494835521        0.2228774288
 H          0.2056099184       -0.0010871755        1.3983243257
 H          1.4069497265       -1.2799258688       -1.1058624433
 H          2.1419863669       -1.2728309817        0.4994218764
 H          0.6343400663       -2.1508490174        0.2213467369
 H         -0.8293514654       -0.0018220855       -1.4906137714
 H         -3.0102190574        0.0026919775       -0.3990089727
 H         -2.2008276170        0.0031775176        1.2411538063
  15
  -15.7709307100000       1.423576615606355E-002 !mtd8
 C          1.2790132570        1.2130365671       -0.2449756307
 C          0.4818745164        0.0970390480        0.4389596526
 C          0.9108266577       -1.2652714244       -0.0959404918
 C         -0.9859283060        0.3757117967        0.2796939927
 C         -1.8832236399       -0.3931983343       -0.3070812351
 H          1.0052585196        2.1857502951        0.1577766457
 H          1.0777089850        1.2145386165       -1.3142527480
 H          2.3461068965        1.0655323175       -0.0941741186
 H          0.7055223350        0.1333580901        1.5138963767
 H          0.3639556618       -2.0635082804        0.4000809885
 H          0.7321175591       -1.3285360417       -1.1668240114
 H          1.9733704077       -1.4162825745        0.0823694844
 H         -1.2946650096        1.3276383964        0.6960125734
 H         -2.9165560200       -0.0964148184       -0.3764034441
 H         -1.6399847377       -1.3476165606       -0.7404826112
  15
  -15.7709307000000       1.423561551470501E-002 !mtd5
 C          0.9116274192        1.2647150981       -0.0959367119
 C          0.4818223994       -0.0973219683        0.4389814350
 C          1.2782945742       -1.2137209390       -0.2450607336
 C         -0.9861461214       -0.3751523853        0.2797232179
 C         -1.8830555733        0.3942666211       -0.3070505055
 H          1.9743553213        1.4149239786        0.0819552071
 H          0.3655500051        2.0632747898        0.4004152163
 H          0.7325225697        1.3282929135       -1.1667295588
 H          0.7054476212       -0.1338080911        1.5139094076
 H          2.3454835461       -1.0668456618       -0.0942162953
 H          1.0039420420       -2.1862619572        0.1577073935
 H          1.0769989128       -1.2150818410       -1.3143519376
 H         -1.2954267898       -1.3267946964        0.6962346801
 H         -2.9165706838        0.0981451911       -0.3763706416
 H         -1.6392321465        1.3484556329       -0.7405592727
  15
  -15.7709307000000       1.423561551470501E-002 !mtd2
 C          1.2790403830        1.2129852236       -0.2449960136
 C          0.4818705449        0.0970218581        0.4389955833
 C          0.9108815529       -1.2652119658       -0.0959726574
 C         -0.9859621589        0.3756751651        0.2798143972
 C         -1.8832675651       -0.3931646729       -0.3071570926
 H          1.0053451169        2.1856519580        0.1579189150
 H          1.0775777263        1.2146631565       -1.3142373650
 H          2.3461606459        1.0654631743       -0.0944136378
 H          0.7055622790        0.1332329093        1.5139147834
 H          1.9735410379       -1.4160104712        0.0818147055
 H          0.3644091732       -2.0634655757        0.4004077085
 H          0.7316188058       -1.3286202966       -1.1667434047
 H         -1.2947670648        1.3274880998        0.6964418120
 H         -2.9165921315       -0.0963522921       -0.3764972076
 H         -1.6400242267       -1.3474476839       -0.7409400032
  15
  -15.7709307000000       1.423561551470501E-002 !mtd7
 C          1.2786555900        1.2130458324       -0.2450798024
 C          0.4819664323        0.0968872910        0.4391479150
 C          0.9109433471       -1.2652785050       -0.0961293031
 C         -0.9859061883        0.3754795495        0.2803059199
 C         -1.8830692713       -0.3928412583       -0.3075029527
 H          1.0758081491        1.2156288254       -1.3140862220
 H          2.3459050458        1.0648808567       -0.0959549709
 H          1.0059625575        2.1855158860        0.1589721307
 H          0.7059719866        0.1330804176        1.5140142949
 H          0.3642425889       -2.0636204544        0.3998955564
 H          0.7319699642       -1.3284134785       -1.1669706584
 H          1.9735418588       -1.4162719432        0.0818742902
 H         -1.2948074178        1.3268012843        0.6978877518
 H         -2.9164552179       -0.0961995700       -0.3765081119
 H         -1.6396317357       -1.3466475215       -0.7421436854
  15
  -15.7709306900000       1.423546487496731E-002 !mtd1
 C          0.9116433105        1.2647277956       -0.0961483816
 C          0.4819235361       -0.0972023438        0.4391255867
 C          1.2779764000       -1.2137966058       -0.2451517019
 C         -0.9861628496       -0.3748296208        0.2804937650
 C         -1.8828071528        0.3939135009       -0.3075727213
 H          1.9740725213        1.4155790741        0.0829126432
 H          0.3645848977        2.0633027757        0.3990711095
 H          0.7337600850        1.3275050680       -1.1671879133
 H          0.7060644909       -0.1335872832        1.5139551921
 H          1.0043310116       -2.1862228937        0.1583762046
 H          1.0754698688       -1.2158086502       -1.3141631893
 H          2.3452745135       -1.0665820088       -0.0955680974
 H         -1.2957356205       -1.3256941670        0.6984938670
 H         -2.9164130645        0.0980595583       -0.3764171337
 H         -1.6387023186        1.3474353786       -0.7425491547
  15
  -15.7709306900000       1.423546487496731E-002 !mtd12
 C          1.2787007995        1.2130104315       -0.2450470040
 C          0.4819352557        0.0968983953        0.4390836500
 C          0.9110179500       -1.2652826503       -0.0960874511
 C         -0.9859514506        0.3755125948        0.2802266869
 C         -1.8831309899       -0.3928586665       -0.3074351911
 H          1.0055176489        2.1855671414        0.1584679002
 H          1.0763980195        1.2151340773       -1.3141221533
 H          2.3459104024        1.0651468279       -0.0953030126
 H          0.7058958952        0.1331865122        1.5139455878
 H          0.7325274691       -1.3283146304       -1.1670302824
 H          1.9735271290       -1.4164543244        0.0824217102
 H          0.3639386730       -2.0635229682        0.3996650043
 H         -1.2948928385        1.3268724598        0.6978126756
 H         -2.9165209704       -0.0961454653       -0.3765747726
 H         -1.6395750292       -1.3465627347       -0.7422893397
  15
  -15.7709306900000       1.423546487496731E-002 !mtd14
 C          0.9115365202        1.2647107969       -0.0959534262
 C          0.4818263483       -0.0973232939        0.4390293912
 C          1.2782877957       -1.2137489251       -0.2450903303
 C         -0.9861258138       -0.3751732904        0.2797611217
 C         -1.8829768659        0.3943071584       -0.3070889373
 H          0.7326876165        1.3281990387       -1.1667958028
 H          1.9741889575        1.4151250373        0.0821598054
 H          0.3652575285        2.0632014926        0.4001824180
 H          0.7054613881       -0.1337351951        1.5139720746
 H          2.3455633358       -1.0662641209       -0.0954117337
 H          1.0048241281       -2.1861957193        0.1585141726
 H          1.0759637268       -1.2159280066       -1.3141895218
 H         -1.2953816110       -1.3268630770        0.6963132559
 H         -2.9165663451        0.0984367742       -0.3763354459
 H         -1.6389913254        1.3484906401       -0.7404283375
  15
  -15.7709306800000       1.423531423679690E-002 !mtd10
 C          0.9116441417        1.2647196842       -0.0959638869
 C          0.4818588996       -0.0972888808        0.4389902261
 C          1.2782721578       -1.2137507590       -0.2450698599
 C         -0.9861248832       -0.3750925950        0.2798071860
 C         -1.8830901576        0.3942093110       -0.3071047138
 H          1.9742773395        1.4151216919        0.0822757932
 H          0.3652739677        2.0632933417        0.4000389898
 H          0.7329133098        1.3280127182       -1.1668252469
 H          0.7055523733       -0.1335963537        1.5139115780
 H          1.0756832516       -1.2162063726       -1.3141353146
 H          2.3455539334       -1.0660831624       -0.0956305520
 H          1.0050415707       -2.1861174187        0.1588839244
 H         -1.2954286339       -1.3266155997        0.6966082035
 H         -2.9165536614        0.0979278903       -0.3765316556
 H         -1.6394511236        1.3484403758       -0.7406283297
  15
  -15.7709306800000       1.423531423679690E-002 !mtd4
 C          0.9116149478        1.2647412871       -0.0959877824
 C          0.4818812722       -0.0972900935        0.4390032346
 C          1.2782239421       -1.2137777444       -0.2450588422
 C         -0.9861387668       -0.3750074013        0.2799794502
 C         -1.8830262807        0.3941581719       -0.3071954014
 H          0.3658968607        2.0633574566        0.4006741428
 H          0.7320413123        1.3284321940       -1.1666908636
 H          1.9744453012        1.4147642908        0.0814094944
 H          0.7056980174       -0.1337847316        1.5138929167
 H          2.3454655221       -1.0668520822       -0.0946646809
 H          1.0040415453       -2.1863269345        0.1578343592
 H          1.0765397710       -1.2152136728       -1.3142575910
 H         -1.2954443489       -1.3266044694        0.6966407769
 H         -2.9165268899        0.0979982555       -0.3765752865
 H         -1.6392346608        1.3480795751       -0.7412695709
  15
  -15.7709306700000       1.423516360024729E-002 !mtd1
 C          1.2788981428        1.2130126157       -0.2450138004
 C          0.4818883766        0.0970045799        0.4389967163
 C          0.9109445521       -1.2652503039       -0.0960597850
 C         -0.9859897791        0.3755236151        0.2801191080
 C         -1.8831875793       -0.3929853323       -0.3073651738
 H          1.0776245884        1.2145124295       -1.3143179697
 H          2.3460433916        1.0656589103       -0.0941758529
 H          1.0049247801        2.1856895369        0.1577902556
 H          0.7056885501        0.1332795221        1.5138881804
 H          1.9735594007       -1.4160265039        0.0817462839
 H          0.3644735164       -2.0635167009        0.4002212285
 H          0.7318131125       -1.3286489637       -1.1668397272
 H         -1.2950139936        1.3267234281        0.6980133642
 H         -2.9166234220       -0.0963440339       -0.3763674176
 H         -1.6395507907       -1.3467194804       -0.7422068112
  15
  -15.7709306700000       1.423516360024729E-002 !mtd4
 C          1.2787260107        1.2129911911       -0.2450532138
 C          0.4819061248        0.0969127847        0.4390906484
 C          0.9109934347       -1.2652842541       -0.0960446081
 C         -0.9859089965        0.3756380077        0.2800118704
 C         -1.8831298060       -0.3929515781       -0.3073078924
 H          2.3459021505        1.0646103527       -0.0957607756
 H          1.0061122027        2.1854901530        0.1589796476
 H          1.0760458719        1.2156260062       -1.3140693706
 H          0.7056757004        0.1332548181        1.5140027820
 H          0.3640645449       -2.0635153302        0.3998980389
 H          0.7323264813       -1.3285002620       -1.1669463328
 H          1.9735234330       -1.4163798588        0.0823011233
 H         -1.2947130582        1.3273512566        0.6967750678
 H         -2.9164456861       -0.0960580670       -0.3767386275
 H         -1.6399464145       -1.3472825628       -0.7409252505
  15
  -15.7709306600000       1.423501296526494E-002 !mtd4
 C          0.9116677646        1.2646936436       -0.0960300460
 C          0.4818517820       -0.0973079559        0.4389495326
 C          1.2782690632       -1.2137719075       -0.2450609844
 C         -0.9861876307       -0.3749231958        0.2800350054
 C         -1.8830193404        0.3940888296       -0.3072611648
 H          0.7330735071        1.3280057320       -1.1669299572
 H          1.9742856665        1.4152000765        0.0824223649
 H          0.3651056288        2.0631964125        0.3999268181
 H          0.7056225670       -0.1336455192        1.5138722662
 H          1.0041794493       -2.1862515508        0.1580655116
 H          1.0765629112       -1.2155258829       -1.3142780123
 H          2.3454618332       -1.0667188187       -0.0946411375
 H         -1.2958821820       -1.3259418194        0.6977889483
 H         -2.9167196676        0.0984904470       -0.3755889818
 H         -1.6390833650        1.3475747499       -0.7423533380
  15
  -15.7709306500000       1.423486233190334E-002 !mtd3
 C          0.9117798519        1.2648017698       -0.0961762292
 C          0.4819709161       -0.0970714421        0.4391500607
 C          1.2777094520       -1.2138172294       -0.2451997430
 C         -0.9860846332       -0.3748645908        0.2805486280
 C         -1.8827738511        0.3937416285       -0.3076333308
 H          0.3652295591        2.0634757026        0.3994854755
 H          0.7332640869        1.3277880541       -1.1671062683
 H          1.9743788157        1.4153491071        0.0822315319
 H          0.7061983445       -0.1334406332        1.5139604963
 H          1.0750248492       -1.2159605466       -1.3142126655
 H          2.3450511685       -1.0666585092       -0.0958587194
 H          1.0040581825       -2.1861414324        0.1585323933
 H         -1.2956994803       -1.3254955996        0.6992675939
 H         -2.9165740114        0.0983118442       -0.3756896432
 H         -1.6385646603        1.3470280671       -0.7430054844
  15
  -15.7709306500000       1.423486233190334E-002 !mtd11
 C          1.2794705577        1.2129593969       -0.2449037661
 C          0.4817719124        0.0972146479        0.4388140544
 C          0.9107403965       -1.2652140052       -0.0957439347
 C         -0.9859521543        0.3760490870        0.2789849540
 C         -1.8835001714       -0.3936476147       -0.3066104015
 H          2.3464641153        1.0658706731       -0.0926326430
 H          1.0049093760        2.1858437424        0.1569182889
 H          1.0795562847        1.2137362161       -1.3144834869
 H          0.7049533187        0.1336368509        1.5138667804
 H          1.9734397759       -1.4158839663        0.0819642893
 H          0.3643681491       -2.0633580803        0.4009636541
 H          0.7313701745       -1.3289682590       -1.1664868426
 H         -1.2945304398        1.3284202170        0.6943811207
 H         -2.9167725338       -0.0967350078       -0.3762053099
 H         -1.6405429493       -1.3486256064       -0.7389117307
  15
  -15.7709306400000       1.423471170010899E-002 !mtd2
 C          0.9116777363        1.2647667137       -0.0961524367
 C          0.4819545790       -0.0971766430        0.4391250718
 C          1.2779602474       -1.2138215946       -0.2451237173
 C         -0.9861629736       -0.3747361832        0.2806516686
 C         -1.8828795411        0.3938570402       -0.3076237076
 H          0.7329153384        1.3279319186       -1.1670260621
 H          1.9743296399        1.4151746442        0.0819695684
 H          0.3653548542        2.0634514866        0.3997471091
 H          0.7060747153       -0.1335462158        1.5139613738
 H          1.0764463842       -1.2150173300       -1.3143650641
 H          2.3452592458       -1.0674065949       -0.0946011922
 H          1.0033263583       -2.1863322891        0.1575730934
 H         -1.2955960084       -1.3259281812        0.6982164570
 H         -2.9163819333        0.0976664198       -0.3769687546
 H         -1.6387457841        1.3470800783       -0.7431361474
  15
  -15.7709306200000       1.423441044132891E-002 !mtd2
 C          0.9116889834        1.2647404279       -0.0962413147
 C          0.4819904723       -0.0972378333        0.4390805631
 C          1.2779279388       -1.2138227759       -0.2451461380
 C         -0.9861590554       -0.3746211923        0.2807246120
 C         -1.8828297119        0.3937520319       -0.3077405795
 H          0.3656028247        2.0633703692        0.4000171726
 H          0.7326277061        1.3280765497       -1.1670559430
 H          1.9744287054        1.4149209399        0.0816567072
 H          0.7060461107       -0.1334575164        1.5139561202
 H          1.0027998352       -2.1863674858        0.1571570041
 H          1.0768939947       -1.2148016157       -1.3144343187
 H          2.3451450711       -1.0676457386       -0.0939969167
 H         -1.2960166510       -1.3250195172        0.6996594206
 H         -2.9166018789        0.0983066600       -0.3753894153
 H         -1.6387601590        1.3466288456       -0.7438192249
  15
  -15.7709306200000       1.423441044132891E-002 !mtd10
 C          1.2788749710        1.2130411287       -0.2450296892
 C          0.4818986410        0.0969845676        0.4389838911
 C          0.9108685100       -1.2651937094       -0.0961216127
 C         -0.9860581160        0.3753885534        0.2804091263
 C         -1.8830134302       -0.3929136221       -0.3075687141
 H          1.0762024290        1.2156253694       -1.3140514295
 H          2.3460542225        1.0644942024       -0.0957702502
 H          1.0065173126        2.1856480659        0.1589038897
 H          0.7058009724        0.1332367324        1.5138595058
 H          0.7333856483       -1.3277981501       -1.1672738320
 H          1.9731728156       -1.4169212248        0.0833889754
 H          0.3628993549       -2.0633549373        0.3988728129
 H         -1.2952835215        1.3262537220        0.6988137905
 H         -2.9165101121       -0.0963696121       -0.3758570708
 H         -1.6395009396       -1.3462268023       -0.7430864300
  15
  -15.7709305600000       1.423350670324260E-002 !mtd1
 C          1.2784234601        1.2130719212       -0.2451355518
 C          0.4820439617        0.0967805470        0.4391913046
 C          0.9111341500       -1.2652358886       -0.0963681694
 C         -0.9859939390        0.3750213791        0.2811485656
 C         -1.8830156943       -0.3923703357       -0.3080620715
 H          2.3455983987        1.0671615827       -0.0932606605
 H          1.0030586551        2.1857504366        0.1563400280
 H          1.0781353539        1.2132162293       -1.3145346163
 H          0.7065295639        0.1328120839        1.5139520145
 H          0.7317652396       -1.3282769462       -1.1671738457
 H          1.9738410908       -1.4159961051        0.0813030398
 H          0.3646705331       -2.0637491207        0.3997699543
 H         -1.2952021034        1.3252392307        0.7009650302
 H         -2.9165483668       -0.0960795814       -0.3760775586
 H         -1.6393647599       -1.3450221692       -0.7446879353
  15
  -15.7695852400000       3.428038144139870E-003 !mtd2
 C          1.0515697089        1.2529659549       -0.2312329781
 C          0.5211205898        0.0076484458        0.4845597317
 C          1.0162974779       -1.2608828455       -0.2130295081
 C         -0.9847800715        0.0449772695        0.5526531151
 C         -1.7884870486       -0.0422174230       -0.4907847684
 H          2.1393836769        1.2476847340       -0.2442846868
 H          0.7154232487        2.1552548599        0.2750496013
 H          0.6926886175        1.2821827820       -1.2570229098
 H          0.9130478887        0.0087319221        1.5073949739
 H          0.6911596980       -1.2813670315       -1.2497356182
 H          2.1033362114       -1.3013974257       -0.1929104193
 H          0.6274257815       -2.1455378197        0.2865416915
 H         -1.4096636256        0.1650368503        1.5408006040
 H         -2.8596413288       -0.0018429057       -0.3879619472
 H         -1.4171296132       -0.1584356435       -1.4953640247
  15
  -15.7695845200000       3.425427315622659E-003 !gc
 C          1.0179277722        1.2601535341       -0.2135333613
 C          0.5211039409       -0.0075929881        0.4843587900
 C          1.0502291823       -1.2538484217       -0.2306832859
 C         -0.9848545673       -0.0421942285        0.5528287843
 C         -1.7886668755        0.0412711448       -0.4908520056
 H          0.6871148434        1.2836150338       -1.2483702288
 H          2.1052058452        1.2961399172       -0.1994668080
 H          0.6354322933        2.1455566162        0.2895200059
 H          0.9132338389       -0.0089009465        1.5071326556
 H          0.6946645018       -1.2813481588       -1.2575891962
 H          2.1381081361       -1.2516488836       -0.2402059193
 H          0.7099925512       -2.1555011648        0.2739972799
 H         -1.4101492540       -0.1563465998        1.5414809024
 H         -2.8598549307        0.0036216111       -0.3870425312
 H         -1.4179412616        0.1511602619       -1.4963927285
  15
  -15.7695808400000       3.412114102498950E-003 !mtd6
 C          1.0464718877        1.2541278838       -0.2289161744
 C          0.5212936044        0.0054935033        0.4846913211
 C          1.0207770033       -1.2599769937       -0.2157926157
 C         -0.9847875086        0.0324510566        0.5539794134
 C         -1.7879153233       -0.0302796361       -0.4916706673
 H          0.7000229502        2.1541244171        0.2744524940
 H          0.6947202003        1.2799005256       -1.2571059492
 H          2.1343836058        1.2572869623       -0.2346533730
 H          0.9140277732        0.0063624832        1.5071972077
 H          2.1081936560       -1.2928463477       -0.2042458513
 H          0.6420945722       -2.1472312147        0.2869170655
 H          0.6872142121       -1.2831033890       -1.2497851782
 H         -1.4107110211        0.1190595637        1.5452242801
 H         -2.8593262145       -0.0010732148       -0.3876018003
 H         -1.4160073705       -0.1141185783       -1.4993893994
  15
  -15.7657934700000       6.201101017776449E-005 !mtd7
 C          1.0082129860        1.2784372712       -0.1960978553
 C          0.5191749335       -0.0151196386        0.4812521418
 C          1.0660525020       -1.2517382266       -0.2421573721
 C         -0.9841344175       -0.1149951740        0.5389513810
 C         -1.7944072117        0.0983478369       -0.4810227690
 H          1.5514805436        1.9023170826        0.5092443291
 H          0.1737837736        1.8595727441       -0.5784357213
 H          1.6729384009        1.0548550746       -1.0266921874
 H          0.8982993517       -0.0389715014        1.5078376355
 H          0.7181098829       -1.2691534016       -1.2722661909
 H          2.1538925780       -1.2439171896       -0.2382464221
 H          0.7257169569       -2.1611018680        0.2491046188
 H         -1.3963854492       -0.4259964062        1.4900550010
 H         -2.8617806493       -0.0130370081       -0.3925320886
 H         -1.4302307978        0.3958262825       -1.4507840247
