! r2scan-3c def2/J RI DEFGRID2 scfconv6 printgap
%output
    printlevel normal
end
%cpcm
    smd true
    smdsolvent "water"
end
* xyz 0 1
C -2.6951018148 -1.1343085002 -0.0234684007
C -2.4090276799 0.3616145764 -0.0786976214
C -0.9649612575 0.7057379288 -0.450344802
C 0.0684125952 0.2481113376 0.5912823566
C 0.6927532378 -1.1197334999 0.2512981137
C 2.0677626261 -0.834403046 -0.3848090204
C 2.1609421667 0.6885545573 -0.5034906089
C 1.2824773288 1.1835811433 0.6394863652
H -2.4680471918 -1.6021793182 -0.9789398039
H -2.1005816799 -1.614685184 0.748848661
H -3.7459768195 -1.306338467 0.1985879913
H -3.0723819108 0.8197277348 -0.8166501989
H -2.6416501969 0.8072067287 0.89165267
H -0.7299510905 0.2691632835 -1.4224460933
H -0.9041602253 1.7914589973 -0.5573988489
H -0.4225348323 0.2194723263 1.5678622591
H 0.8131171362 -1.7162309936 1.1560616133
H 0.0566241943 -1.6811251156 -0.4294663459
H 2.8641821682 -1.2040829285 0.2617865478
H 2.1756859657 -1.3208907541 -1.3532732177
H 3.1867568047 1.0470464658 -0.4299041209
H 1.7491045306 1.0231307171 -1.456126141
H 1.8082234882 1.0535246368 1.5873392859
H 1.0094026776 2.2331919245 0.5404193418
*
