! r2scan-3c def2/J RI DEFGRID2 scfconv6 printgap
%output
    printlevel normal
end
* xyz 0 1
C 3.0839069824 -0.4311004608 0.1710696407
C 1.8895760085 0.3168866218 -0.4092249671
C 0.5699858817 -0.2209432716 0.1426389106
C -0.6163304051 0.5195875622 -0.4508078843
S -2.2128695573 -0.0385983223 0.2514964733
H 3.1068298172 -0.3301397704 1.2536124844
H 4.0123838547 -0.0344835678 -0.2313955437
H 3.0268036477 -1.4891999854 -0.0733920882
H 1.8915857783 0.2187620113 -1.4969857192
H 1.9740356017 1.3794344857 -0.1715870449
H 0.5541423091 -0.1126282318 1.2294161387
H 0.4879391594 -1.2855855022 -0.0882003744
H -0.5730244096 1.5830021515 -0.2154483612
H -0.6694623617 0.3973132191 -1.5320933818
H -2.1273789175 -1.2962723391 -0.1645137909
*
