  22
        -26.19219964
 C          2.3231794769       -0.9470542252        0.2477388152
 C          1.2784637398       -0.1165463213       -0.4908521354
 C          1.7878093894        1.3100307658       -0.7290210486
 C          0.0000331779       -0.0007859080        0.3268036515
 O         -0.0000149084       -0.0029830113        1.5309537373
 C         -1.2783654879        0.1179828101       -0.4904911927
 C         -2.3224974172        0.9470625396        0.2505422812
 C         -1.7885880874       -1.3076246873       -0.7325187483
 H          1.9810013346       -1.9731421740        0.3625808736
 H          2.4903729580       -0.5309671994        1.2379379193
 H          3.2635483642       -0.9508767375       -0.2982761396
 H          1.0497464885       -0.5763965528       -1.4573722821
 H          2.6992034561        1.2864713174       -1.3220995049
 H          1.0468041079        1.9070264530       -1.2564866651
 H          2.0046834972        1.7893941840        0.2228611153
 H         -1.0494689463        0.5803441867       -1.4557690788
 H         -3.2630459808        0.9526173669       -0.2951412979
 H         -2.4895246542        0.5285921331        1.2397677687
 H         -1.9798650040        1.9727278451        0.3677887175
 H         -2.7000544330       -1.2818938732       -1.3254036397
 H         -1.0479804443       -1.9035711713       -1.2617344275
 H         -2.0055986934       -1.7894983222        0.2180656435
