! r2scan-3c def2/J RI DEFGRID2 scfconv6 printgap
%output
    printlevel normal
end
* xyz 0 1
C 1.5858454376 -1.1863903033 -0.6526774489
C 1.0601357673 -0.2747544128 0.455487878
C 1.2382451383 1.192118425 0.074420132
C -0.3937040901 -0.6009618203 0.8288453012
C -1.4412159102 -0.3384803527 -0.2536776124
O -1.7688738031 1.0388675266 -0.2848769868
H 2.6511243944 -1.021604427 -0.7951953948
H 1.0865322434 -0.9827523938 -1.5965146768
H 1.4303917796 -2.2317278128 -0.3961180263
H 1.6575901251 -0.4663408169 1.3552886688
H 0.6808497939 1.4244090868 -0.8284850189
H 2.2891022149 1.4126486605 -0.0994959102
H 0.8725105898 1.8384268705 0.868383849
H -0.676336852 -0.0063975195 1.699961147
H -0.4511970435 -1.655637511 1.1042284233
H -1.0715101656 -0.663692411 -1.2337119211
H -2.3406893412 -0.9233686193 -0.0155501035
H -2.4705633542 1.186204189 -0.9318202221
*
