! pbe def2-sv(p) def2/J RI DEFGRID1 loosescf d4 GCP(DFT/SV(P)) printgap
%output
    printlevel normal
end
* xyz 0 1
C -2.5436724771 0.6159115592 0.6544825742
C -1.7421632367 0.3545153528 -0.6228443098
C -0.4299050901 -0.308257786 -0.2899977302
O -0.1496571499 -1.459533492 -0.5541863697
O 0.3822497233 0.5175398343 0.3556004278
C 1.6755598026 0.0372266835 0.756708959
C 2.703111149 0.257354173 -0.3429989747
H -3.4834257415 1.0988006587 0.4041310895
H -2.757719399 -0.3194552894 1.1660312665
H -1.9817625197 1.2612226639 1.3242075205
H -1.5315866381 1.3008269418 -1.120992249
H -2.2944045597 -0.3016550094 -1.2947245232
H 1.9205855912 0.613849384 1.6492772724
H 1.5935099683 -1.0262587411 1.0008405088
H 2.7379549547 1.3082401344 -0.6171189156
H 3.6806478583 -0.0543297849 0.0099976012
H 2.4408402095 -0.3294904996 -1.2205871225
*
