! r2scan-3c def2/J RI DEFGRID2 scfconv6 printgap
%output
    printlevel normal
end
%cpcm
    smd true
    smdsolvent "water"
end
* xyz 0 1
C -1.4980913073 1.0555839467 0.5942188434
C -1.1531367953 -0.3224157201 0.0340982223
C -2.3334396109 -0.8393151071 -0.7922532024
C 0.1012904802 -0.3262052784 -0.8511675847
C 1.4755051309 -0.095502245 -0.1946270949
C 1.7936375833 1.3764449226 0.066621034
C 1.6608878711 -0.9170677683 1.0793339533
H -2.4862190551 1.0353241797 1.0498262057
H -0.7890470209 1.3645420757 1.355857647
H -1.5028219721 1.7995179304 -0.1992458381
H -1.0019135278 -1.0131636129 0.8689433884
H -2.5180804103 -0.1825834314 -1.639895931
H -2.133417806 -1.839354366 -1.1705262874
H -3.2357843999 -0.8784562247 -0.1862769564
H -0.0304960591 0.4160696302 -1.6426779592
H 0.1418778408 -1.3062637992 -1.3350914403
H 2.213309526 -0.4502085594 -0.9262805373
H 1.1956294655 1.7775954181 0.8784098534
H 2.8419125938 1.4836486167 0.338544529
H 1.6104713277 1.9724255199 -0.8242578511
H 1.415734686 -1.9615247474 0.9008539067
H 2.6948599102 -0.8600116348 1.4124180993
H 1.0280235852 -0.5415234137 1.8794065945
*
