! r2scan-3c def2/J RI DEFGRID2 scfconv6 printgap
%output
    printlevel normal
end
%cpcm
    smd true
    smdsolvent "water"
end
* xyz 0 1
C -1.9758215147 1.4465077851 0.0761770383
C -1.4845287154 0.0832729865 -0.3995606412
C -0.1599713028 -0.3511028013 0.2382655187
H -0.2102348465 -0.153906282 1.3158478811
C 0.0739324893 -1.846474532 0.0273362451
C 1.0223287919 0.4397350623 -0.3380796586
O 2.2450559649 0.164973994 0.3139747637
H -2.942356105 1.6701864557 -0.3682871709
H -2.0868618033 1.4544596834 1.1580960828
H -1.2847847586 2.2366816774 -0.2052667156
H -1.3704490031 0.0931691096 -1.4856524999
H -2.241753411 -0.6640625457 -0.1537503113
H -0.664159775 -2.4324438048 0.5689843236
H 1.0662635709 -2.1223296011 0.3764731101
H 0.0043722377 -2.0908209632 -1.0304206963
H 0.8167479697 1.5168396066 -0.300781939
H 1.1823451956 0.156864952 -1.3817898941
H 2.1717272399 0.4343415225 1.2399386569
*
