! r2scan-3c def2/J RI DEFGRID2 scfconv6 printgap
%output
    printlevel normal
end
* xyz 0 1
C -2.667267556 -1.2404917792 0.2244014103
C -2.4948768258 0.2697941316 0.1171394863
C -1.1876404423 0.7076470673 -0.5470400666
C 0.0761022408 0.4134892482 0.2664599078
C 0.6320525128 -1.0201973222 0.110207824
C 2.1220271044 -0.8777338241 -0.236325906
C 2.4866389404 0.5324496082 0.2193990295
C 1.2401916986 1.3271486736 -0.1489472302
H -1.9177523234 -1.6723722568 0.8806139818
H -3.6498336952 -1.4762094938 0.627252652
H -2.5800449204 -1.7050612078 -0.7552478755
H -3.3248527534 0.6750207362 -0.4672022067
H -2.5518466756 0.7104889216 1.1152651851
H -1.104205849 0.2412729249 -1.5313075192
H -1.2432524925 1.7888076371 -0.700743838
H -0.1459624755 0.5975062168 1.3223662029
H 0.5139036776 -1.5774064358 1.0396620153
H 0.1053952286 -1.5641636709 -0.6720618746
H 2.731024855 -1.6429487794 0.242942656
H 2.2655215421 -0.9573036772 -1.3148904729
H 2.6365454681 0.5524055475 1.3001357084
H 3.387063176 0.9101878148 -0.2628706899
H 1.1945471712 2.2984658692 0.3418696575
H 1.2142475566 1.4853610453 -1.2288768462
*
