  21
        -32.50911365
 C         -3.6683088152       -0.3894970355       -0.9043631529
 C         -3.0079469407       -0.4309592877        0.4656108192
 O         -1.5890185453       -0.6141206429        0.3519620494
 C         -0.8270276366        0.4662379813        0.1962309063
 O         -1.2747172571        1.5995378013        0.1701689848
 C          0.6099580008        0.1447352494        0.0730866602
 C          1.5160498539        1.1940136757       -0.0740795283
 C          2.8671190939        0.9302806078       -0.1921505123
 C          3.3207105251       -0.3797354477       -0.1647673957
 C          2.4227567203       -1.4265692689       -0.0194380794
 C          1.0695818860       -1.1710306598        0.0996571762
 H         -3.4269039358       -1.2893230127       -1.4637490237
 H         -4.7442240478       -0.3192624153       -0.7824813247
 H         -3.3180866377        0.4776841327       -1.4600163365
 H         -3.3494597919       -1.2894945323        1.0449490860
 H         -3.1985317582        0.4975577921        1.0127827548
 H          1.1356076962        2.2043620993       -0.0921820483
 H          3.5657896346        1.7443567347       -0.3054354797
 H          4.3759685719       -0.5850910549       -0.2571232350
 H          2.7795401473       -2.4444594880        0.0011053280
 H          0.3622730644       -1.9768891365        0.2131497406
  21
        -32.50879162
 C         -3.7513739714        0.8571889631       -1.2480776242
 C         -3.0271335162        0.1803821537       -0.1007094506
 O         -1.6154786144        0.2663274120       -0.3473815502
 C         -0.8063125561       -0.2838699709        0.5521429279
 O         -1.2218476306       -0.8435688496        1.5533283212
 C          0.6247002812       -0.1466964764        0.2139654452
 C          1.0420035425        0.5042928284       -0.9459078789
 C          2.3918349137        0.6099754676       -1.2241937833
 C          3.3280780694        0.0713945223       -0.3544099365
 C          2.9166069469       -0.5768546278        0.8002693574
 C          1.5693003541       -0.6867208484        1.0857381047
 H         -4.8215673886        0.8019897926       -1.0783686497
 H         -3.4518564652        1.8989129101       -1.3140935694
 H         -3.5104642426        0.3619186842       -2.1840581570
 H         -3.2992934637       -0.8770195446       -0.0136715693
 H         -3.2406294135        0.6645795026        0.8582971634
 H          0.3051887746        0.9192763459       -1.6145878401
 H          2.7159104460        1.1136314894       -2.1213753533
 H          4.3804831314        0.1567010785       -0.5766670816
 H          3.6452221619       -0.9960507012        1.4764820552
 H          1.2207548586       -1.1859253609        1.9775105104
  21
        -32.50868451
 C         -3.6602962028        1.1893557007       -0.8113968340
 C         -3.0309862493       -0.1340657412       -0.4077576482
 O         -1.6045939591       -0.0552449636       -0.5560738555
 C         -0.8283792812       -0.3001403433        0.4947685120
 O         -1.2600677677       -0.6178842632        1.5900846681
 C          0.6106343475       -0.1519129768        0.1912754526
 C          1.0552849193        0.2652449132       -1.0622882323
 C          2.4107444669        0.3926466114       -1.3011883616
 C          3.3261585776        0.1057089790       -0.2997701340
 C          2.8876660830       -0.3100807911        0.9482153255
 C          1.5343807436       -0.4382117519        1.1954801169
 H         -3.3937123223        1.4313595307       -1.8361008887
 H         -4.7395206779        1.1103815406       -0.7309171431
 H         -3.3126142142        1.9868107463       -0.1597235720
 H         -3.3642453918       -0.9424795922       -1.0636112842
 H         -3.2598160856       -0.3870567981        0.6321084573
 H          0.3349863129        0.4854599131       -1.8336532689
 H          2.7555259524        0.7167255852       -2.2706677714
 H          4.3831375255        0.2064609470       -0.4919437710
 H          3.5997761076       -0.5339699416        1.7269967682
 H          1.1655696989       -0.7595490998        2.1580495523
  21
        -32.50867019
 C         -3.7431612666       -0.9811526639       -0.7636282133
 C         -3.0322785183       -0.2201804725        0.3431906345
 O         -1.6172022507       -0.4467644657        0.2471766885
 C         -0.7954280688        0.5964502826        0.1951342021
 O         -1.1747572563        1.7542089327        0.2491273784
 C          0.6238066621        0.2027017112        0.0703402533
 C          1.5921803147        1.2054706891        0.0496191043
 C          2.9287469402        0.8748105441       -0.0650334000
 C          3.3059494584       -0.4560371385       -0.1607574525
 C          2.3459295670       -1.4566316397       -0.1421304234
 C          1.0068564403       -1.1341047038       -0.0265266945
 H         -3.4258442865       -0.6159548794       -1.7368844339
 H         -3.5132750967       -2.0403581823       -0.6937290115
 H         -4.8142346723       -0.8395684508       -0.6629432139
 H         -3.3395614608       -0.5826269901        1.3278817130
 H         -3.2181492478        0.8563283329        0.2764096243
 H          1.2705297944        2.2333723907        0.1255175347
 H          3.6755183961        1.6531453747       -0.0798262471
 H          4.3499133998       -0.7136283789       -0.2505091793
 H          2.6430986578       -2.4909043869       -0.2178389475
 H          0.2522505434       -1.9038874781       -0.0104567455
