! r2scan-3c def2/J RI DEFGRID2 scfconv6 printgap
%output
    printlevel normal
end
* xyz 0 1
C -1.8288198979 0.9850496264 0.7985128782
C -1.1496468125 0.3407793023 -0.4051738809
C 0.0029643155 -0.6055632674 -0.0169386875
C 1.3885490179 0.0135666858 -0.2270135406
C 1.6662527474 1.2155872749 0.6641919989
O -0.0106510146 -1.7930075318 -0.799895275
H -2.2562578916 0.2255477941 1.4493967474
H -1.1213099902 1.5712818068 1.3776182421
H -2.6295290866 1.6413846692 0.4667176289
H -1.8922279251 -0.2331939793 -0.9645651686
H -0.7731919566 1.1135223248 -1.0769919023
H -0.1004669393 -0.8809379985 1.0450782175
H 2.1248488021 -0.7690214599 -0.0315444488
H 1.480558624 0.2913181227 -1.278874514
H 1.5308811808 0.9532294497 1.71093054
H 2.6912213811 1.5482910911 0.5230494783
H 1.0042033092 2.0421497111 0.4220449789
H -0.8346545947 -2.2723326927 -0.6406275554
*
