! r2scan-3c def2/J RI DEFGRID2 scfconv6 printgap
%output
    printlevel normal
end
%cpcm
    smd true
    smdsolvent "water"
end
* xyz 0 1
C -2.5157470689 -0.0730198224 0.6464590646
C -1.6359463074 0.7633364227 -0.2791548389
C -0.50781814 -0.060229809 -0.9128704779
C 0.8058307736 -0.1221936586 -0.0983792595
C 1.5684793403 1.2031012309 -0.2076660235
C 1.6750872188 -1.2618531552 -0.6384256674
O 0.5637874235 -0.4325371537 1.2710054615
H -1.9148648471 -0.590537952 1.3893970603
H -3.0581056881 -0.8211627135 0.0720924444
H -3.2407733498 0.5565874144 1.1575026951
H -2.2603424566 1.1750034772 -1.0748721635
H -1.2228458399 1.6107669519 0.2716238122
H -0.869981059 -1.0786956174 -1.0641421023
H -0.2574735879 0.3513466861 -1.8915429243
H 1.8818793503 1.3713590234 -1.2336627729
H 2.4517760454 1.1703418574 0.4263521888
H 0.9467844685 2.0391419819 0.1051196739
H 1.1813681089 -2.2127673504 -0.4561435594
H 2.6325259208 -1.270718304 -0.1244711991
H 1.8393784341 -1.1408449841 -1.7044403462
H 0.2117588902 0.3539208548 1.7078123149
*
