! r2scan-3c def2/J RI DEFGRID2 scfconv6 printgap
%output
    printlevel normal
end
%cpcm
    smd true
    smdsolvent "water"
end
* xyz 0 1
C 2.5257736835 -0.5643348456 -0.3227290765
C 1.2399799579 -0.0024727978 0.2791020609
H 1.0702020192 -0.4832059965 1.2572561751
C 0.0316268506 -0.2659933291 -0.6365875915
C -1.2862124865 -0.5367142058 0.1000033166
C -1.7345465574 0.6522159854 0.9482417894
C -2.3735384465 -0.8928895646 -0.9131850037
O 1.4651165895 1.3855209467 0.4819101983
H 2.6834127625 -0.1387317855 -1.3101783264
H 3.3689858108 -0.2933556227 0.307098247
H 2.466416674 -1.6455666849 -0.3970416927
H -0.085924918 0.5935743823 -1.3008689614
H 0.2550192081 -1.1329166483 -1.2600479867
H -1.1348578369 -1.3972609664 0.7622754409
H -2.7068557735 0.4481896726 1.3913261112
H -1.8238501332 1.5457060673 0.3336666957
H -1.035959929 0.8412713536 1.7598581836
H -3.305605306 -1.1282693781 -0.4052799676
H -2.5508196242 -0.0571586949 -1.5865025946
H -2.078993427 -1.7551764986 -1.5063139597
H 0.6518076582 1.7975365104 0.8014405309
*
