! pbe def2-sv(p) def2/J RI DEFGRID1 loosescf d4 GCP(DFT/SV(P)) printgap
%output
    printlevel normal
end
* xyz 0 1
C 1.7910177088 0.5632361144 -1.0889968622
C 1.0679515386 -0.1799285262 0.0304396292
H 0.6856586927 -1.1323571024 -0.3646781972
C -0.0918802739 0.6437402751 0.6236817358
C -1.5018922447 0.2800843243 0.1319212838
C -1.6448570045 0.4065438313 -1.3828509357
C -1.9303043676 -1.1117605895 0.5959989855
O 2.0541172271 -0.4673434159 1.0160396447
H 1.1034083544 0.8160681735 -1.888003765
H 2.233114771 1.4725254538 -0.6896245505
H 2.5897355373 -0.0594209604 -1.4840924989
H -0.0739205702 0.5223855037 1.7099438182
H 0.0918283326 1.7003574884 0.4199794117
H -2.1826619479 1.0057274735 0.593215393
H -2.6812842157 0.249449171 -1.6729873154
H -1.034485912 -0.3337954321 -1.8935133112
H -1.3444538335 1.3975755209 -1.7141420936
H -1.86532665 -1.1924609542 1.6785331263
H -2.9595533507 -1.3019689949 0.3013127823
H -1.3067675226 -1.8837990938 0.1521206999
H 1.6651787657 -1.0146189919 1.7103918413
*
