! r2scan-3c def2/J RI DEFGRID2 scfconv6 printgap
%output
    printlevel normal
end
%cpcm
    smd true
    smdsolvent "water"
end
* xyz 0 1
C -4.2476208555 -0.0253893419 -0.217707659
C -2.7534975726 -0.1227243807 -0.4992932936
C -1.9183726572 0.2444131067 0.733687199
C -0.4509813859 0.1377915688 0.4340421967
C 0.2266593938 -1.0627419827 0.6117233578
C 1.5662912181 -1.1799872866 0.2997645838
C 2.2621568446 -0.0858175782 -0.20496164
C 1.5952950067 1.1188007755 -0.3893153614
C 0.2529287818 1.2215451719 -0.0724914819
O 3.5840564558 -0.2435304907 -0.4985498182
H -4.5147468605 0.9869872394 0.0768270186
H -4.8201020622 -0.2884992765 -1.1037155566
H -4.5284439097 -0.7013237663 0.5867968893
H -2.4891831746 0.5469068678 -1.320664503
H -2.5024003717 -1.1395160566 -0.8091408754
H -2.1791546532 -0.4283895572 1.5529386077
H -2.1623140572 1.2641771448 1.0378306686
H -0.3011932545 -1.9196389416 1.0038736345
H 2.0949495672 -2.10994045 0.4399981843
H 2.1246334252 1.9765679619 -0.7792617293
H -0.2534609826 2.1643750842 -0.2197529947
H 3.9555461177 0.583859092 -0.8393048809
*
