  12
  -27.2441081200000       9.276421308991714E-002 !input
 C         -1.6505535675       -1.2352295313        0.0085075674
 C         -0.9403683009        0.0234810237       -0.4850422404
 H         -0.9436580035        0.0750118882       -1.5792111092
 C          0.5306169267       -0.0095330040       -0.0341778784
 F          1.2380543659        1.0201780759       -0.5070505690
 F          0.6264153540        0.0399756482        1.3071621739
 F          1.1591688897       -1.1268869780       -0.4258033102
 O         -1.5399550111        1.2055067054       -0.0439032149
 H         -2.6949550219       -1.1927799028       -0.2874806344
 H         -1.5932746403       -1.2995375513        1.0940923738
 H         -1.1935718123       -2.1215956285       -0.4221224394
 H         -1.5709855088        1.2144179178        0.9222095003
  12
  -27.2441081200000       9.276421308991714E-002 !md8
 C         -1.4290868022       -0.5384748715       -1.3849711601
 C         -0.9831936163        0.3302149797       -0.2107837114
 H         -1.1227801268        1.3939589976       -0.4317497188
 C          0.5180691268        0.1106574966        0.0465369252
 F          1.2602867913        0.3268467086       -1.0486216222
 F          0.9988162524        0.9071905591        1.0049738483
 F          0.7618071814       -1.1537550338        0.4371331653
 O         -1.7009860388        0.0850741532        0.9622437551
 H         -1.2371060662       -1.5888207203       -1.1712596015
 H         -0.8941141163       -0.2585843901       -2.2878918022
 H         -2.4947131675       -0.4002878797       -1.5444990875
 H         -1.6194113030       -0.8468980467        1.2055571274
  12
  -27.2441081200000       9.276421308991714E-002 !mtd2
 C         -1.8046742992       -0.0204990095        0.9966477443
 C         -0.9776874944       -0.3167724310       -0.2526190826
 H         -1.1053452208       -1.3565264762       -0.5727297522
 C          0.5150878499       -0.1164271363        0.0628783864
 F          0.7785676876        1.1697378319        0.3580095801
 F          0.9162355927       -0.8444161333        1.1146103552
 F          1.3071689039       -0.4444239378       -0.9613680678
 O         -1.3346633195        0.4690382630       -1.3509814813
 H         -2.8587350795       -0.1363695230        0.7605473991
 H         -1.6279774510        1.0002206674        1.3324088819
 H         -1.5410524567       -0.7058300862        1.7970519794
 H         -1.2473131409        1.4046715093       -1.1244368792
  12
  -27.2441081200000       9.276421308991714E-002 !mtd4
 C         -1.4291094263       -0.5386984155       -1.3848833924
 C         -0.9831657345        0.3302346043       -0.2108565580
 H         -1.1227075840        1.3939509874       -0.4319635266
 C          0.5181128456        0.1107563119        0.0464934876
 F          1.2602776981        0.3268719149       -1.0486294520
 F          0.9988497001        0.9070977876        1.0051167594
 F          0.7617950922       -1.1537751832        0.4370815886
 O         -1.7010097020        0.0853012549        0.9621647777
 H         -0.8948090700       -0.2584336924       -2.2881080095
 H         -2.4949321853       -0.4012533920       -1.5438643900
 H         -1.2362541823       -1.5889302563       -1.1712820708
 H         -1.6198609700       -0.8466648097        1.2053944102
  12
  -27.2441081100000       9.276323146891201E-002 !mtd14
 C         -1.6505904034       -1.2352508426        0.0082339849
 C         -0.9403707608        0.0234858955       -0.4850813721
 H         -0.9437970681        0.0752909973       -1.5792365099
 C          0.5305966439       -0.0094711107       -0.0342317048
 F          1.2380214450        1.0200570459       -0.5072175022
 F          0.6264048788        0.0401435172        1.3071168153
 F          1.1591915667       -1.1269289311       -0.4255862735
 O         -1.5399144717        1.2054653944       -0.0435914788
 H         -1.5950783123       -1.2986188006        1.0939453527
 H         -1.1922636091       -2.1216456354       -0.4208718223
 H         -2.6945155874       -1.1938010177       -0.2895588681
 H         -1.5703333956        1.2143131847        0.9225396182
  12
  -27.2441081100000       9.276323146891201E-002 !mtd11
 C         -1.8046420032       -0.0200289227        0.9966593546
 C         -0.9777016229       -0.3168100510       -0.2525307776
 H         -1.1053786478       -1.3566831414       -0.5722908811
 C          0.5150725844       -0.1164613711        0.0629617066
 F          0.7784563035        1.1697781644        0.3580516397
 F          0.9163166028       -0.8444759287        1.1146599099
 F          1.3071578957       -0.4444081987       -0.9614360739
 O         -1.3346868309        0.4686757909       -1.3511261132
 H         -1.6270292793        1.0003432804        1.3328728606
 H         -1.5418092833       -0.7059516244        1.7967576843
 H         -2.8587203400       -0.1348068793        0.7603366445
 H         -1.2463671276        1.4043428517       -1.1251673862
  12
  -27.2441080900000       9.276126825841258E-002 !mtd11
 C         -1.6507102829       -1.2353312242        0.0080822187
 C         -0.9403550543        0.0234875446       -0.4850065783
 H         -0.9437990697        0.0753435212       -1.5791495839
 C          0.5305884892       -0.0095288126       -0.0342502792
 F          1.2381118441        1.0200605306       -0.5072528189
 F          0.6264075162        0.0403200798        1.3070982457
 F          1.1591425943       -1.1269974182       -0.4255482029
 O         -1.5399582776        1.2053913495       -0.0434674590
 H         -1.1931803288       -2.1215926190       -0.4222079611
 H         -2.6948721757       -1.1931578604       -0.2887656662
 H         -1.5942166014       -1.2995085376        1.0937248141
 H         -1.5687164158        1.2151526305        0.9226842106
  12
  -27.2441080900000       9.276126825841258E-002 !mtd10
 C         -1.8046359596       -0.0201689295        0.9966674033
 C         -0.9776822891       -0.3167607017       -0.2525405880
 H         -1.1053809357       -1.3565586336       -0.5724413930
 C          0.5150512592       -0.1164648143        0.0629413211
 F          0.7784061616        1.1697242623        0.3580801230
 F          0.9163456791       -0.8444677622        1.1146825021
 F          1.3071489744       -0.4443974408       -0.9614389122
 O         -1.3347127376        0.4688141449       -1.3511432898
 H         -1.5421809660       -0.7065516914        1.7965463380
 H         -2.8586935627       -0.1345357073        0.7600699303
 H         -1.6267612192        1.0000053655        1.3333456948
 H         -1.2453598045        1.4044696219       -1.1253843087
  12
  -27.2441080900000       9.276126825841258E-002 !mtd4
 C         -1.4291011717       -0.5373765602       -1.3854448440
 C         -0.9832130464        0.3303052244       -0.2105008587
 H         -1.1229554190        1.3942499602       -0.4303780530
 C          0.5180564855        0.1106926409        0.0466481521
 F          1.2601026419        0.3266537263       -1.0487641801
 F          0.9990694966        0.9073527494        1.0048612769
 F          0.7617328040       -1.1536340917        0.4374152243
 O         -1.7009298684        0.0838672257        0.9623720642
 H         -2.4950703227       -0.4002764739       -1.5437596065
 H         -1.2355921141       -1.5878043315       -1.1733291216
 H         -0.8953448884       -0.2556020623       -2.2885354190
 H         -1.6194006824       -0.8483223119        1.2045633625
  12
  -27.2423957800000       1.515107635159015E-002 !hor
 C         -1.6975143092       -1.1793969713        0.1079312889
 C         -0.9287745741       -0.0111382820       -0.4952254780
 H         -0.8784382244       -0.1065046181       -1.5934543676
 C          0.5281953626       -0.0333889921       -0.0057866911
 F          1.1962333943        1.0507568710       -0.4471036231
 F          0.6429910728       -0.0366969664        1.3237073974
 F          1.1919663635       -1.1045278310       -0.4621987460
 O         -1.5464469817        1.1850852327       -0.1168893887
 H         -1.2258646394       -2.1198754859       -0.1618407222
 H         -2.7163162524       -1.1612406549       -0.2659066521
 H         -1.7211327776       -1.0770461987        1.1896562331
 H         -1.0436740028        1.9432335739       -0.4399873339
  12
  -27.2423957800000       1.515107635159015E-002 !hor
 C         -1.6976337398       -1.1791933360        0.1084579953
 C         -0.9287656314       -0.0112823351       -0.4952054060
 H         -0.8783498746       -0.1072025108       -1.5933834229
 C          0.5281842463       -0.0334484381       -0.0056784519
 F          1.1960984205        1.0509979111       -0.4467889593
 F          0.6430790031       -0.0371247655        1.3237490711
 F          1.1920881053       -1.1043789674       -0.4625193517
 O         -1.5464228113        1.1851280153       -0.1174758249
 H         -2.7163719256       -1.1611934316       -0.2655830855
 H         -1.7214017603       -1.0762842211        1.1901426603
 H         -1.2259283230       -2.1198090808       -0.1608118943
 H         -1.0437165784        1.9430894167       -0.4410672902
  12
  -27.2423957700000       1.515091602457376E-002 !mtd1
 C         -1.4725501146       -0.6459339315       -1.3033417707
 C         -0.9683137169        0.3297354378       -0.2481923871
 H         -1.0348590124        1.3675545209       -0.6172664346
 C          0.5226398710        0.0785195998        0.0287714434
 F          1.2834381222        0.3634516078       -1.0371390776
 F          0.9595459070        0.8621081352        1.0346278448
 F          0.7940219993       -1.1798326490        0.3805810999
 O         -1.7121549606        0.1586069476        0.9236172287
 H         -1.3824487335       -1.6622259147       -0.9289814799
 H         -0.8985538534       -0.5396984814       -2.2192628565
 H         -2.5193735333       -0.4396315418       -1.5023568934
 H         -1.3728363709        0.7267284480        1.6264934321
  12
  -27.2423957600000       1.515075569919696E-002 !gc
 C         -1.8246570490        0.1522705142        0.9653531399
 C         -0.9745187987       -0.3463563490       -0.1957777181
 H         -1.0746401333       -1.4396235260       -0.3073340581
 C          0.5129342004       -0.0896794544        0.0948970823
 F          0.7893486730        1.1870026093        0.3677507736
 F          0.9523858866       -0.8188911905        1.1300660253
 F          1.2718976850       -0.4296892061       -0.9657107937
 O         -1.3600630956        0.3208917106       -1.3627042026
 H         -2.8683587254       -0.0564853712        0.7528114318
 H         -1.6984110551        1.2265381226        1.0710444514
 H         -1.5326993609       -0.3442751009        1.8862102342
 H         -0.7968689154        0.0623124774       -2.1028931430
  12
  -27.2423957600000       1.515075569919696E-002 !mtd1
 C         -1.6975730360       -1.1792246844        0.1085858397
 C         -0.9287719258       -0.0113156385       -0.4952078414
 H         -0.8784451041       -0.1072447190       -1.5933940127
 C          0.5281297710       -0.0335450590       -0.0057465868
 F          1.1959968674        1.0510631178       -0.4467190994
 F          0.6429614284       -0.0371873587        1.3237323746
 F          1.1921358443       -1.1043638104       -0.4626159504
 O         -1.5462927085        1.1852373868       -0.1175827214
 H         -1.7211796848       -1.0764321081        1.1902720061
 H         -1.2261493557       -2.1199714010       -0.1608102356
 H         -2.7163350681       -1.1610261890       -0.2652672765
 H         -1.0424931220        1.9431253243       -0.4396704347
  12
  -27.2423957600000       1.515075569919696E-002 !mtd2
 C         -1.4726333356       -0.6455316198       -1.3035824996
 C         -0.9683490028        0.3297559194       -0.2480743818
 H         -1.0350125146        1.3677277194       -0.6166873195
 C          0.5226484469        0.0786001530        0.0287354103
 F          1.2833994916        0.3633356278       -1.0371566959
 F          0.9596468251        0.8622221690        1.0344408451
 F          0.7939452494       -1.1797128146        0.3807895972
 O         -1.7120378322        0.1580466066        0.9237285451
 H         -0.8989750210       -0.5386400791       -2.2196832177
 H         -2.5196049247       -0.4394115156       -1.5020702097
 H         -1.3821518905       -1.6619952586       -0.9297352447
 H         -1.3726038035        0.7257205748        1.6268534810
  12
  -27.2423957600000       1.515075569919696E-002 !mtd11
 C         -1.8245959134        0.1531949272        0.9651846794
 C         -0.9745350623       -0.3465589592       -0.1955248381
 H         -1.0746988908       -1.4398995117       -0.3064637785
 C          0.5128893655       -0.0897262956        0.0950230987
 F          0.7891835616        1.1870939675        0.3678272785
 F          0.9526073292       -0.8188517067        1.1301348959
 F          1.2716557286       -0.4296522491       -0.9658179320
 O         -1.3599191874        0.3199856847       -1.3629357406
 H         -1.5314208084       -0.3411478181        1.8868612438
 H         -2.8681407395       -0.0573348473        0.7537498781
 H         -1.6997435454        1.2278685042        1.0687248160
 H         -0.7957601075        0.0621561789       -2.1025862964
  12
  -27.2423957500000       1.515059537551671E-002 !mtd10
 C         -1.8245331024        0.1518201368        0.9654347794
 C         -0.9745164858       -0.3463799599       -0.1959456369
 H         -1.0746472811       -1.4396063852       -0.3079434667
 C          0.5129074244       -0.0896547966        0.0948607698
 F          0.7893460485        1.1869780240        0.3677426274
 F          0.9522362944       -0.8188871252        1.1300474547
 F          1.2719242320       -0.4297592367       -0.9657009441
 O         -1.3600003006        0.3213996428       -1.3625748247
 H         -1.6996565696        1.2263528456        1.0702464795
 H         -1.5313042376       -0.3436655633        1.8864691990
 H         -2.8680681976       -0.0585099786        0.7537727046
 H         -0.7971154327        0.0628942100       -2.1029808977
  12
  -27.2423957300000       1.515027473324578E-002 !mtd5
 C         -1.4723142857       -0.6438388080       -1.3045762627
 C         -0.9684275327        0.3300167874       -0.2475085933
 H         -1.0351739102        1.3686137424       -0.6144358400
 C          0.5225725261        0.0786138296        0.0288274577
 F          1.2830732444        0.3628952254       -1.0374721372
 F          0.9600153884        0.8626348056        1.0342641369
 F          0.7937184434       -1.1796225554        0.3812868051
 O         -1.7119824839        0.1562240885        0.9240161894
 H         -2.5193585112       -0.4376192695       -1.5027193156
 H         -1.3816083773       -1.6608844978       -0.9324040970
 H         -0.8987050086       -0.5353770310       -2.2205061618
 H         -1.3728649103        0.7229764688        1.6280846881
  12
  -27.2408570200000       2.973571279502913E-003 !md2
 C         -1.8071744137        0.0424509900        0.9926083533
 C         -0.9702150153       -0.3439271679       -0.2238143992
 H         -1.0622579045       -1.4238453485       -0.4305304905
 C          0.5134919826       -0.0909258494        0.0658606389
 F          0.7692996796        1.1810360920        0.3780710921
 F          0.9299609668       -0.8333251555        1.1080965961
 F          1.2967999735       -0.4136267933       -0.9647782866
 O         -1.2710789039        0.4126443430       -1.3654974608
 H         -2.8553109456       -0.1790335384        0.8046316597
 H         -1.6985597849        1.1070100604        1.1888691201
 H         -1.4817060759       -0.5163214662        1.8657380326
 H         -2.2207346294        0.3805548748       -1.5271909563
  12
  -27.2408570000000       2.973508347807874E-003 !mtd7
 C         -1.6563125839       -1.2267205387        0.0640842898
 C         -0.9292168267       -0.0073860240       -0.4962939872
 H         -0.8863364918       -0.0537355417       -1.5978424781
 C          0.5254277397       -0.0038330255       -0.0132764861
 F          1.2139301351        1.0413703729       -0.4749804102
 F          0.6278276782        0.0076946402        1.3171971194
 F          1.1725972579       -1.1044252230       -0.4387315577
 O         -1.4775062593        1.2096054216       -0.0665385328
 H         -2.6751765770       -1.2553059273       -0.3155755011
 H         -1.6833527566       -1.1699386643        1.1501987212
 H         -1.1455203195       -2.1385377066       -0.2328665248
 H         -2.4248024354        1.2121074075       -0.2443757232
  12
  -27.2408569800000       2.973445417455877E-003 !mtd10
 C         -1.8075708002        0.0413793150        0.9923537467
 C         -0.9701775186       -0.3440020120       -0.2240521262
 H         -1.0621030674       -1.4237618553       -0.4317213856
 C          0.5135317766       -0.0909662741        0.0659309371
 F          0.7690943594        1.1810958882        0.3779018681
 F          0.9300724464       -0.8330262708        1.1082499869
 F          1.2968971973       -0.4138190621       -0.9646784776
 O         -1.2707708626        0.4134849752       -1.3651655888
 H         -1.4815851501       -0.5171810577        1.8654463815
 H         -2.8557029166       -0.1809462923        0.8042916722
 H         -1.6998628385        1.1060439701        1.1886778300
 H         -2.2204663660        0.3818734833       -1.5269988352
  12
  -27.2408569800000       2.973445417455877E-003 !mtd8
 C         -1.6562646812       -1.2271508922        0.0625684540
 C         -0.9291929988       -0.0070617812       -0.4962502565
 H         -0.8862750459       -0.0521990503       -1.5978590159
 C          0.5254312843       -0.0037989647       -0.0132073616
 F          1.2142293141        1.0409245853       -0.4759482015
 F          0.6279249730        0.0087558106        1.3172264325
 F          1.1722452608       -1.1048112804       -0.4377822590
 O         -1.4776485729        1.2093491516       -0.0650403867
 H         -1.6821366138       -1.1726229738        1.1488360835
 H         -1.1462192172       -2.1385541709       -0.2369009307
 H         -2.6755385944       -1.2545401890       -0.3160683058
 H         -2.4244954291        1.2131099220       -0.2457357415
  12
  -27.2408569800000       2.973445417455877E-003 !mtd4
 C         -1.4329193942       -0.6213863420       -1.3469922998
 C         -0.9715959434        0.3264202031       -0.2431571343
 H         -1.0585851049        1.3760335264       -0.5719467921
 C          0.5143597727        0.0946274842        0.0525183930
 F          1.2619725061        0.3348254968       -1.0403043072
 F          0.9759097849        0.9005605892        1.0104214675
 F          0.7771433585       -1.1593148769        0.4256740629
 O         -1.6389930602        0.1251249381        0.9735860879
 H         -1.3314413912       -1.6513719595       -1.0116680753
 H         -0.8333242843       -0.4766583997       -2.2414517180
 H         -2.4756528605       -0.4273193934       -1.5880809659
 H         -2.5906076706        0.1465871741        0.8217130897
  12
  -27.2408569700000       2.973413952773732E-003 !mtd8
 C         -1.4327490030       -0.6204173069       -1.3473784747
 C         -0.9716557277        0.3266269602       -0.2428393355
 H         -1.0588155636        1.3765452334       -0.5707330751
 C          0.5143831930        0.0946786121        0.0525452074
 F          1.2618209977        0.3344414956       -1.0403343417
 F          0.9760112406        0.9007298734        1.0101556810
 F          0.7771745298       -1.1592238290        0.4259062711
 O         -1.6390948614        0.1241511361        0.9737088815
 H         -0.8314199113       -0.4767704120       -2.2408805033
 H         -2.4748187877       -0.4245687525       -1.5900931748
 H         -1.3335066223       -1.6506138145       -1.0118327270
 H         -2.5906757143        0.1458468897        0.8218501467
  12
  -27.2408569500000       2.973351024419480E-003 !mtd4
 C         -1.8074045671        0.0391675314        0.9925164177
 C         -0.9700577165       -0.3437432779       -0.2247502708
 H         -1.0617728906       -1.4231374402       -0.4344060734
 C          0.5135109726       -0.0909050933        0.0655948472
 F          0.7693227326        1.1811053223        0.3774886960
 F          0.9294974830       -0.8329966318        1.1084334776
 F          1.2972484294       -0.4143194833       -0.9644812428
 O         -1.2710009724        0.4157909959       -1.3644596012
 H         -1.6990930365        1.1031972005        1.1919339584
 H         -1.4822342187       -0.5221250954        1.8641460275
 H         -2.8554250554       -0.1820240814        0.8035454134
 H         -2.2207905939        0.3847532056       -1.5257326070
  12
  -27.2408569300000       2.973288097385849E-003 !gc
 C         -1.4329229048       -0.6222485027       -1.3464761760
 C         -0.9715499348        0.3263499187       -0.2433891052
 H         -1.0582032396        1.3757140614       -0.5731310946
 C          0.5144079606        0.0945557909        0.0525040029
 F          1.2621118945        0.3351010997       -1.0402344322
 F          0.9757058649        0.9002938374        1.0106769145
 F          0.7773750237       -1.1594753814        0.4253445081
 O         -1.6392686835        0.1263588171        0.9733756218
 H         -2.4745778955       -0.4258585833       -1.5904434303
 H         -1.3351112543       -1.6517658802       -1.0085770322
 H         -0.8307935227       -0.4814186240       -2.2399212308
 H         -2.5907812331        0.1458381481        0.8208443217
  12
  -27.2408569200000       2.973256634368448E-003 !md4
 C         -1.6564844842       -1.2271831226        0.0623565936
 C         -0.9291377993       -0.0070956049       -0.4961534112
 H         -0.8862536845       -0.0519852482       -1.5978353380
 C          0.5253764417       -0.0038484910       -0.0132803149
 F          1.2141055439        1.0408421654       -0.4760270179
 F          0.6280235953        0.0088360581        1.3171744119
 F          1.1723873285       -1.1047421025       -0.4376058270
 O         -1.4775870315        1.2093618635       -0.0649156085
 H         -1.1463762177       -2.1385991000       -0.2369254168
 H         -2.6756448395       -1.2545586426       -0.3165042185
 H         -1.6826477875       -1.1726461805        1.1486188245
 H         -2.4243080508        1.2128952552       -0.2456819401
  12
  -27.2404491400000       1.931210811185078E-003 !mtd11
 C         -1.8178212115       -0.0120551590        1.0012888640
 C         -0.9770107849       -0.3198897396       -0.2486077093
 H         -1.0936022742       -1.3608819623       -0.5667209263
 C          0.5144089711       -0.1155090949        0.0649400328
 F          0.7734212884        1.1706691321        0.3665135408
 F          0.9223558106       -0.8470746663        1.1111714053
 F          1.3043723116       -0.4336061496       -0.9640618958
 O         -1.3233064334        0.4516918269       -1.3611359760
 H         -2.4806632013        0.8240063511        0.7907714039
 H         -1.1879234636        0.2513570403        1.8471819654
 H         -2.4259862139       -0.8667765561        1.2777256160
 H         -1.1814732797        1.3880503349       -1.1672984776
  12
  -27.2368313600000       4.199650140254363E-005 !mtd7
 C         -1.8077067519       -0.8032116325        0.6816152749
 C         -0.9475661233       -0.2004467795       -0.4265553724
 H         -0.9404707419       -0.8726447945       -1.3017762610
 C          0.5282180882       -0.0602461113        0.0169649582
 F          0.9690826906        1.1923378380       -0.0121405593
 F          0.7456111269       -0.5137059116        1.2615242171
 F          1.3400598325       -0.7785167287       -0.7782421774
 O         -1.3684423142        1.0842641338       -0.7996789574
 H         -1.4204642969       -1.7734704434        0.9792726834
 H         -2.8267351897       -0.9283258936        0.3217450897
 H         -1.8148757013       -0.1446657822        1.5471771976
 H         -2.3158594031        1.0686783734       -0.9747760781
  12
  -27.2368311100000       4.198539275173995E-005 !md8
 C         -1.8074911516       -0.8009835886        0.6837039069
 C         -0.9476216853       -0.2010650658       -0.4262874426
 H         -0.9409600808       -0.8752616354       -1.2999754095
 C          0.5280756698       -0.0605176650        0.0171282250
 F          0.9679355889        1.1924518082       -0.0102948803
 F          0.7459168004       -0.5153958455        1.2609683440
 F          1.3402114478       -0.7770627345       -0.7791294245
 O         -1.3677774804        1.0831813135       -0.8020009795
 H         -1.8131030415       -0.1412020377        1.5481886088
 H         -1.4214147868       -1.7712982560        0.9823780026
 H         -2.8268962260       -0.9252273060        0.3247219712
 H         -2.3137921204        1.0661012601       -0.9844272379
