! r2scan-3c def2/J RI DEFGRID2 scfconv6 printgap
%output
    printlevel normal
end
%cpcm
    smd true
    smdsolvent "water"
end
* xyz 0 1
C -1.74484813 1.4697467143 0.3083836617
C -1.2082994058 0.2690657285 -0.4643900103
C -0.2447018595 -0.607115998 0.346676738
H -0.7317170564 -0.8709798544 1.2916630968
C 0.0812603284 -1.8889163609 -0.4189284347
C 1.0596094249 0.120939912 0.713193835
O 1.844542835 0.4984938798 -0.3976086993
H -2.4752994641 2.0043946807 -0.2939853059
H -2.2303502199 1.1425910688 1.2251212027
H -0.9519434295 2.1645990947 0.5723966631
H -0.7161837967 0.6052969168 -1.3797402352
H -2.0527768326 -0.3538737074 -0.7672142006
H 0.6437637934 -1.651940231 -1.3192051838
H -0.8293484234 -2.4105250857 -0.702024286
H 0.6858744016 -2.5530762779 0.1937969111
H 1.695030687 -0.5541429491 1.2923291848
H 0.8410031785 0.9972326348 1.3367686218
H 1.3544145162 1.14979185 -0.91717817
*
