  13
        -23.26265046
 C         -3.4748917206        0.3750763057       -0.0000304922
 C         -2.7180039624        1.5355178469       -0.0000162019
 C         -1.3376046794        1.4530399769        0.0000387124
 C         -0.7250874198        0.2144450060        0.0000679258
 C         -1.4678318399       -0.9639053490        0.0000183242
 C         -2.8588351132       -0.8593584083       -0.0000252655
 O         -0.9245044801       -2.1959323720        0.0000108928
 I          1.4016868447        0.0998530903       -0.0000066965
 H         -4.5524889165        0.4313047409       -0.0000220920
 H         -3.1952549623        2.5027744999       -0.0000129833
 H         -0.7379095238        2.3500326861        0.0000480030
 H         -3.4285566188       -1.7747815467       -0.0000317397
 H          0.0445904371       -2.1354774289        0.0000574247
