! r2scan-3c def2/J RI DEFGRID2 scfconv6 printgap
%output
    printlevel normal
end
* xyz 0 1
C -0.2803154641 2.151388908 -0.942734492
N -0.1012434901 0.7249210327 -0.7599830591
C -1.2499671717 -0.1056500662 -0.9419797063
C -2.1268459604 -0.2179452397 0.3140216027
F -3.1240424367 -1.1111956523 0.1414651559
F -1.4606990105 -0.6085147372 1.4104453207
F -2.7265575722 0.942621985 0.6386221229
C 1.1348016162 0.2090627935 -0.4170085309
C 2.2831736809 1.0041857813 -0.5175865445
C 3.527235313 0.5000155337 -0.1937302763
C 3.6736624806 -0.8080580245 0.2347959445
C 2.5464080704 -1.6036585856 0.3406412341
C 1.2954823114 -1.1087625542 0.0256376803
H 0.1931409048 2.6998270645 -0.1282194422
H -1.3410287774 2.3870755594 -0.9311943796
H 0.1427415681 2.4843185093 -1.8944935771
H -1.8940600665 0.3039331833 -1.7269607877
H -0.9620763926 -1.1210638188 -1.2247557634
H 2.2130347208 2.0217320573 -0.861836377
H 4.3939869683 1.1382675626 -0.2832941353
H 4.6472866429 -1.1996439223 0.4855000547
H 2.6358746445 -2.6248020701 0.681442524
H 0.4469525353 -1.7613218752 0.1556985891
*
