  17
        -22.49386443
 C          1.8625672437       -1.4313183197        0.0000896842
 C          0.5578068410       -0.7002759936        0.0001250854
 C         -0.6492306995       -1.3879627837       -0.0000413354
 C         -1.8361028794       -0.6744139748       -0.0001957169
 N         -1.8838720015        0.6459213786        0.0000227101
 C         -0.7374715938        1.3022373191        0.0002221309
 C          0.5140612080        0.6981457449        0.0001157902
 C          1.7648877890        1.5182768986       -0.0002428700
 H          2.4476351757       -1.1651201543       -0.8797806598
 H          2.4484074546       -1.1638582665        0.8790377586
 H          1.7030092681       -2.5065580216        0.0008977090
 H         -0.6618358198       -2.4679738776       -0.0001752966
 H         -2.7932862919       -1.1791566160       -0.0004703189
 H         -0.8228595692        2.3822281711        0.0004328190
 H          2.3685915636        1.2964091535        0.8794689565
 H          2.3679363644        1.2963707989       -0.8804208919
 H          1.5269572272        2.5789305249       -0.0001728471
  17
        -22.49224465
 C          1.8484119745       -1.4716266955       -0.0002047295
 C          0.5672519789       -0.6935716936        0.0001010148
 C         -0.6419461008       -1.3829122886        0.0001548089
 C         -1.8304640102       -0.6762380538        0.0001182687
 N         -1.8808469321        0.6451132383       -0.0002064709
 C         -0.7358856885        1.3010572831       -0.0000653326
 C          0.5211411015        0.7029440400        0.0002114071
 C          1.7554655315        1.5525532395        0.0000800383
 H          1.8899331178       -2.1152250479        0.8779342695
 H          1.8910445379       -2.1120710400       -0.8805939540
 H          2.7201192164       -0.8262156836        0.0013967596
 H         -0.6472410109       -2.4630504414       -0.0001947385
 H         -2.7862201899       -1.1836448604       -0.0004058815
 H         -0.8238224076        2.3809086607        0.0005047234
 H          2.3589629335        1.3566815069       -0.8857277735
 H          1.4861931644        2.6059285394        0.0050582453
 H          2.3646843328        1.3496124330        0.8801848323
  17
        -22.49211876
 C          1.8556193051       -1.4663150194       -0.0000679480
 C          0.5652744544       -0.7044082352        0.0000560336
 C         -0.6476097568       -1.3862795989        0.0000531096
 C         -1.8331621287       -0.6733817705        0.0000068339
 N         -1.8785064907        0.6481977112       -0.0000733136
 C         -0.7302394129        1.2977881704       -0.0000206483
 C          0.5236432424        0.6922325082        0.0001209470
 C          1.7480283557        1.5575355212       -0.0000101171
 H          1.6638389837       -2.5364468954       -0.0012772342
 H          2.4463684247       -1.2211111251       -0.8819169556
 H          2.4453495874       -1.2230104346        0.8830026658
 H         -0.6632903152       -2.4662750726       -0.0000130474
 H         -2.7908878134       -1.1769865607       -0.0000807349
 H         -0.8084669536        2.3783481286        0.0002218473
 H          1.7503085817        2.1967459833       -0.8822588589
 H          1.7448325573        2.2049175891        0.8762122823
 H          2.6619231939        0.9730388669        0.0054818296
  17
        -22.49012913
 C          1.8353162298       -1.5159673834       -0.0004469330
 C          0.5783275586       -0.6977206363       -0.0003518105
 C         -0.6387056058       -1.3802728564        0.0003319903
 C         -1.8255372368       -0.6755695294        0.0006514769
 N         -1.8733858608        0.6478189768       -0.0002268899
 C         -0.7269034763        1.2957391614       -0.0008083857
 C          0.5343784537        0.6971613115       -0.0004332128
 C          1.7317464803        1.6008386837        0.0009733248
 H          2.7349403973       -0.9105429553       -0.0103893146
 H          1.8585721198       -2.1509882266        0.8845967432
 H          1.8489099294       -2.1656929509       -0.8749213343
 H         -0.6458975108       -2.4604544892        0.0005208560
 H         -2.7819615773       -1.1815006214        0.0009059044
 H         -0.8063858238        2.3763355957       -0.0014543263
 H          1.7105793258        2.2377533213        0.8846442612
 H          2.6705970917        1.0576268399       -0.0048704642
 H          1.7052288901        2.2480861963       -0.8748836011
