  17
        -22.49386443
 C          1.8625672437       -1.4313183197        0.0000896842
 C          0.5578068410       -0.7002759936        0.0001250854
 C         -0.6492306995       -1.3879627837       -0.0000413354
 C         -1.8361028794       -0.6744139748       -0.0001957169
 N         -1.8838720015        0.6459213786        0.0000227101
 C         -0.7374715938        1.3022373191        0.0002221309
 C          0.5140612080        0.6981457449        0.0001157902
 C          1.7648877890        1.5182768986       -0.0002428700
 H          2.4476351757       -1.1651201543       -0.8797806598
 H          2.4484074546       -1.1638582665        0.8790377586
 H          1.7030092681       -2.5065580216        0.0008977090
 H         -0.6618358198       -2.4679738776       -0.0001752966
 H         -2.7932862919       -1.1791566160       -0.0004703189
 H         -0.8228595692        2.3822281711        0.0004328190
 H          2.3685915636        1.2964091535        0.8794689565
 H          2.3679363644        1.2963707989       -0.8804208919
 H          1.5269572272        2.5789305249       -0.0001728471
