  8
  -27.7902545600000       0.333336860655984      !md2
 C          0.1685115268        0.6547882063       -0.5104095124
 H          0.2042801462        0.7403766437       -1.6030367319
 C          1.3332594607       -0.2125843130       -0.0143978362
 F          1.3309614182       -0.3730997220        1.3026710961
 F          2.5036619711        0.3327315339       -0.3565773921
 F          1.2810099797       -1.4214713864       -0.5774778830
 F          0.2517156051        1.8821738576        0.0313897070
 Br        -1.5044892376       -0.1757510941        0.0040010108
  8
  -27.7902545500000       0.333333333320891      !mtd8
 C          0.0733225578        0.7520096845        0.3829529362
 H          0.4807844146        1.7107840970        0.0407164044
 C          1.2057921060       -0.2710615573        0.5435932489
 F          2.0971084865        0.1528228475        1.4437346414
 F          1.8549700568       -0.4264665087       -0.6121124251
 F          0.7716713092       -1.4625814926        0.9338210511
 F         -0.5482311662        0.9320491025        1.5612254079
 Br        -1.1911318964        0.0973304346       -0.9307564885
  8
  -27.7902545400000       0.333329806023124      !mtd4
 C         -0.2150039359       -0.1068128644       -0.8122784743
 H         -0.7774084726       -0.8980279404       -1.3221705699
 C          1.1354072805       -0.6525309879       -0.3289684756
 F          0.9477963422       -1.6913801575        0.4877213188
 F          1.8547763370        0.2542471778        0.3195979400
 F          1.8627893131       -1.0874273999       -1.3614318723
 F         -0.0152978067        0.9124982640       -1.6655709793
 Br        -1.2341709301        0.5087630440        0.7159913096
