! pbe def2-sv(p) def2/J RI DEFGRID1 loosescf d4 GCP(DFT/SV(P)) printgap
%output
    printlevel normal
end
* xyz 0 1
C -2.9575027223 2.2249629727 -0.0532306066
O -2.6219018709 0.8454254877 0.0010907484
C -1.3310761413 0.4331551827 -0.0097758693
C -1.1464005918 -0.9554074479 0.0269535736
C 0.1026316052 -1.5309296198 0.0107712259
C 1.2327173854 -0.7258484285 -0.0361276956
C 1.1085559101 0.6573965769 -0.0473979834
C -0.1843932226 1.231457049 -0.0432128958
O -0.2765453626 2.5853204115 -0.0745229564
O 2.0911479669 1.6059292878 -0.0905154029
C 3.4071405454 1.3419580366 0.3737711738
Cl 2.7568814989 -1.5607178328 -0.1169588385
Cl -2.5522618292 -1.9588597436 0.0812142408
H -2.5731104075 2.7594945316 0.8153523662
H -4.0453244379 2.2390042863 -0.0481515246
H -2.5820988255 2.6871585912 -0.9661092837
H 0.2030745858 -2.6026528842 0.025807193
H 0.6240981938 2.9573981875 -0.0832230607
H 3.8498342814 2.3245891787 0.5255870118
H 3.9874743968 0.7925097005 -0.3677285596
H 3.3927851411 0.7935121786 1.3157158806
*
