! r2scan-3c def2/J RI DEFGRID2 scfconv6 printgap
%output
    printlevel normal
end
* xyz 0 1
C 2.7088778091 -0.3897056615 0.2450384869
C 1.3704319876 -0.612983992 -0.4494521605
C 0.2465250296 0.1894740899 0.2143635788
H 0.2638625711 -0.003114571 1.2992056816
C -1.1470852618 -0.2022202433 -0.3298931956
C -1.5647018581 -1.5808284392 0.1783407065
C -2.2068563714 0.8260858928 0.0715440416
O 0.5461094927 1.5571842315 -0.0214305241
H 3.4989733075 -0.9232124228 -0.2766236655
H 2.6686804085 -0.7450237454 1.272425239
H 2.948785628 0.670447588 0.2527439227
H 1.4403075471 -0.2862847981 -1.488471138
H 1.1235065456 -1.6732545243 -0.4343738501
H -1.0842088972 -0.2243289101 -1.4231281212
H -2.5512186873 -1.8319608704 -0.2030910833
H -0.8729733575 -2.3538596363 -0.1428134434
H -1.6055325996 -1.5846709877 1.2655394794
H -2.2445755812 0.9317162699 1.1543628079
H -3.1850474984 0.4993248418 -0.2722459006
H -2.0006415853 1.793789068 -0.3783575111
H -0.0044414061 2.106659318 0.5498932425
*
