! r2scan-3c def2/J RI DEFGRID2 scfconv6 printgap
%output
    printlevel normal
end
%cpcm
    smd true
    smdsolvent "water"
end
* xyz 0 1
C -2.1575227177 -0.7767046285 0.3790207777
C -1.2383782496 -0.2102816502 -0.6860278706
S 8.94687e-05 0.9505445113 -0.0009689526
C 1.238393139 -0.208933734 0.6865970976
C 2.1573025318 -0.7774535929 -0.3775502527
H -1.5979124892 -1.3552370898 1.1108169831
H -2.6716494248 0.0290949388 0.8972381491
H -2.896720448 -1.4274568236 -0.0822475834
H -1.7968796236 0.383956008 -1.4076605038
H -0.6957312448 -0.9930585965 -1.2133988928
H 1.7970561315 0.3868803688 1.4068041199
H 0.6957651252 -0.990606633 1.2156468647
H 2.6713368107 0.0272204248 -0.8976435268
H 2.8965905922 -1.4271065634 0.0850227405
H 1.5977447113 -1.357631335 -1.108059776
*
