  19
        -24.37176447
 C         -2.1960692498        0.6921419919       -0.0485850850
 C         -2.1960952658       -0.6921171153       -0.0483085838
 C         -1.0022065994       -1.3986536613        0.0045198159
 C          0.1845889850       -0.6963410831        0.0519046017
 C          0.1846090793        0.6963834525        0.0518777094
 C         -1.0021725540        1.3986879084        0.0041865011
 C          1.5887362514        1.2212319223        0.1234843348
 C          2.4412009362        0.0000552820       -0.2565911503
 C          1.5886852741       -1.2213653906        0.1228458029
 H         -3.1331652249        1.2278911066       -0.0925083550
 H         -3.1332283194       -1.2278338859       -0.0917384947
 H         -1.0043115164       -2.4792805343        0.0041856833
 H         -1.0043152487        2.4793034866        0.0031607843
 H          1.7553375688        2.0702283332       -0.5397763166
 H          1.8065267502        1.5463340243        1.1450921125
 H          2.6117575367        0.0004655061       -1.3345258310
 H          3.4104811441       -0.0000459018        0.2399050218
 H          1.7547422967       -2.0697151153       -0.5414186696
 H          1.8068701910       -1.5476247633        1.1440601866
