! r2scan-3c def2/J RI DEFGRID2 scfconv6 printgap
%output
    printlevel normal
end
* xyz 0 1
C -4.2703768607 -1.9512481085 -1.3474121107
C -3.2981877985 -0.7905545935 -1.1763434504
C -2.4835139097 -0.9109228513 0.1155300183
H -2.0583147556 -1.9189544178 0.1713082802
C -3.3006663195 -0.6418264298 1.3739103308
N -1.3082395 -0.0192866263 0.0683221798
C -0.0513887101 -0.6205033997 0.121359675
O 0.0717527009 -1.8312088695 0.2018594937
C 1.0677297889 0.2952151478 0.0739500184
C 0.9105525093 1.639787696 -0.0166897277
N -0.3688508927 2.1078921359 -0.0628665478
C -1.5052184527 1.3372595802 -0.0262331633
O -2.5996073268 1.8665290786 -0.0765387302
C 1.9908540237 2.6544416274 -0.0700696686
Br 2.7763405467 -0.5360476041 0.1491911715
H -5.0251415874 -1.9452975273 -0.5669195664
H -4.7725248293 -1.8708882748 -2.3074318387
H -3.7402141196 -2.900249508 -1.3131258553
H -2.6024976211 -0.7813851785 -2.0197948394
H -3.8415152066 0.1547904418 -1.1753216808
H -2.6632026347 -0.6995197808 2.2535491165
H -3.7575559682 0.3428875173 1.3278496032
H -4.0793913978 -1.3914568316 1.464423222
H -0.5271221462 3.1087408755 -0.1315450202
H 1.8985748168 3.3350503757 0.7739135586
H 1.9048027534 3.2368905448 -0.9850191175
H 2.968711672 2.1844990674 -0.0397525875
*
