  15
        -15.77081689
 C          1.6432708590        0.9736724796        0.0462860205
 C          1.3524737873       -0.5062049089       -0.1682894990
 C         -0.0317127870       -0.8956157961        0.3611989067
 C         -1.1258345475       -0.2202151208       -0.4015804793
 C         -2.0402084708        0.5670788807        0.1322118661
 H          0.8965757225        1.5835908776       -0.4572645061
 H          2.6245672103        1.2321096789       -0.3455341624
 H          1.6219561573        1.2153538235        1.1068081717
 H          1.4080557135       -0.7375867279       -1.2345733535
 H          2.1111451457       -1.1038109426        0.3421824843
 H         -0.1044458175       -0.6394397558        1.4199457079
 H         -0.1523262511       -1.9790565871        0.2641086365
 H         -1.1283148381       -0.4128670436       -1.4674810168
 H         -2.8115368894        1.0326456645       -0.4579557973
 H         -2.0583380935        0.7777163510        1.1893333614
  15
        -15.77064490
 C          2.4163887060        0.3105364076        0.2600782377
 C          1.0954725180        0.1331716177       -0.4775954535
 C         -0.0354430551       -0.2692009000        0.4740013968
 C         -1.3236514901       -0.4579887801       -0.2602149424
 C         -2.4256049844        0.2308152489       -0.0323425677
 H          2.7092005141       -0.6169419441        0.7480106090
 H          2.3281692368        1.0835311295        1.0205822956
 H          3.2049985609        0.5983735337       -0.4314634381
 H          0.8258839605        1.0672282846       -0.9757067322
 H          1.2082823425       -0.6331816099       -1.2479655312
 H         -0.1553576049        0.4954833319        1.2440058957
 H          0.2373905029       -1.2075408229        0.9666871833
 H         -1.3053920396       -1.2144354696       -1.0349625862
 H         -3.3314359018        0.0645008411       -0.5904497346
 H         -2.4703645451        0.9906007450        0.7311427363
  15
        -15.76964265
 C          1.9523260712        0.7234921706       -0.3478271081
 C          1.2081095435       -0.2570956233        0.5503344954
 C         -0.0340583996       -0.8615574795       -0.1190205555
 C         -1.1001690773        0.1581723338       -0.3652519338
 C         -2.2507269527        0.1993630940        0.2793833095
 H          1.3386684186        1.5931979933       -0.5675068709
 H          2.2272746565        0.2477398105       -1.2871746243
 H          2.8618559572        1.0662805544        0.1408206045
 H          1.8832387501       -1.0713603478        0.8245464385
 H          0.9047901676        0.2481215282        1.4700115892
 H         -0.4311091287       -1.6508724074        0.5228865388
 H          0.2631938783       -1.3113596811       -1.0705149582
 H         -0.8768566164        0.8998174875       -1.1205425821
 H         -2.9923701676        0.9549058703        0.0816994658
 H         -2.5031273429       -0.5280930580        1.0341578787
  15
        -15.76940548
 C          2.3505447074        0.2906994684        0.0551645412
 C          0.8488135445        0.5429223218       -0.0068689123
 C          0.0646660154       -0.7645151951        0.0477493572
 C         -1.4251745778       -0.6222670544       -0.0061984566
 C         -2.1121623323        0.5009193193       -0.0951461386
 H          2.8983339954        1.2294637969        0.0159755673
 H          2.6700438767       -0.3270346515       -0.7818052852
 H          2.6151016494       -0.2214458818        0.9781749531
 H          0.5542274655        1.1772764510        0.8315341453
 H          0.6090911844        1.0706996952       -0.9321328533
 H          0.3218604845       -1.3007157117        0.9676385472
 H          0.3754155468       -1.4060378102       -0.7839147754
 H         -1.9554591727       -1.5668922432        0.0346713011
 H         -3.1887949875        0.4990014022       -0.1278018943
 H         -1.6427924079        1.4682351383       -0.1391850241
  15
        -15.76835096
 C          1.6158983142        0.9424859406       -0.2338551069
 C          1.1200888631       -0.2716078508        0.5428494130
 C          0.0543348817       -1.0507682203       -0.2260095725
 C         -1.2746904877       -0.3729739194       -0.3779490285
 C         -1.7220826674        0.6729343408        0.2909158665
 H          0.7921462180        1.6113505748       -0.4689684154
 H          2.0780145623        0.6307466014       -1.1684282429
 H          2.3543171480        1.4916957719        0.3461567250
 H          1.9643208059       -0.9377021686        0.7374208382
 H          0.7224873312        0.0399443205        1.5098678549
 H         -0.1214698531       -2.0092688180        0.2756914698
 H          0.4366148661       -1.2852272184       -1.2242730518
 H         -1.9184028347       -0.8414591326       -1.1136619351
 H         -2.7070840898        1.0713547278        0.1137652502
 H         -1.1406959988        1.1810762415        1.0406740494
  15
        -15.76824558
 C          1.9869130975        0.7867719871       -0.2259549308
 C          1.3247177126       -0.4564537411        0.3566136886
 C         -0.0495220074       -0.7244982167       -0.2575224555
 C         -1.0977253482        0.2485079441        0.1969469933
 C         -2.3893453691        0.1106814163       -0.0372218876
 H          2.9512859826        0.9617995287        0.2457476744
 H          1.3671732859        1.6670606983       -0.0728863984
 H          2.1452446185        0.6656934965       -1.2957989313
 H          1.9698560589       -1.3192185629        0.1745797893
 H          1.2204717770       -0.3456331472        1.4385246230
 H         -0.3721674851       -1.7378446252       -0.0034626358
 H          0.0330667201       -0.6807698303       -1.3481476354
 H         -0.7420970006        1.1062983795        0.7517150178
 H         -3.1126727238        0.8319315614        0.3028874316
 H         -2.7793223053       -0.7323394052       -0.5847636301
  15
        -15.76798548
 C          1.6431893070        0.9213573615        0.2412534757
 C          1.1390790968       -0.3109443110       -0.4990950379
 C          0.0256407792       -1.0229159472        0.2736688324
 C         -1.2175715769       -0.1999284141        0.4618082163
 C         -1.7961387568        0.5398982025       -0.4659112908
 H          2.0386000888        0.6448819223        1.2165865819
 H          0.8327446877        1.6314542919        0.3884999709
 H          2.4337415356        1.4105048884       -0.3234202031
 H          0.7770683789       -0.0210047839       -1.4861174350
 H          1.9659807703       -1.0102381678       -0.6441323132
 H          0.4100102348       -1.3176087786        1.2526089426
 H         -0.2428774964       -1.9408231687       -0.2597388856
 H         -1.6642487643       -0.2557323332        1.4465605440
 H         -2.6960863426        1.0964735443       -0.2658129703
 H         -1.4024302424        0.6264592520       -1.4647497950
  15
        -15.76680053
 C          1.6409462839        0.9839795669        0.0417273799
 C          1.3512096381       -0.5091139601       -0.1605776687
 C         -0.0360725913       -0.9075394445        0.3570986051
 C         -1.1243081178       -0.2203736730       -0.4028769733
 C         -2.0331256113        0.5707781957        0.1350022153
 H          1.8178361951        1.4838327819       -0.9069810757
 H          2.5170615216        1.1345343790        0.6673111421
 H          0.7970818172        1.4750539353        0.5199590839
 H          1.4144509466       -0.7618974633       -1.2206868794
 H          2.0997970050       -1.1088036085        0.3602896046
 H         -0.1144785076       -0.6684875460        1.4195450092
 H         -0.1537495894       -1.9897362707        0.2425362065
 H         -1.1242243584       -0.4019774390       -1.4703286123
 H         -2.7985413937        1.0482266575       -0.4532896240
 H         -2.0557697658        0.7696462231        1.1946992100
