  15
        -15.77081689
 C          1.6432708590        0.9736724796        0.0462860205
 C          1.3524737873       -0.5062049089       -0.1682894990
 C         -0.0317127870       -0.8956157961        0.3611989067
 C         -1.1258345475       -0.2202151208       -0.4015804793
 C         -2.0402084708        0.5670788807        0.1322118661
 H          0.8965757225        1.5835908776       -0.4572645061
 H          2.6245672103        1.2321096789       -0.3455341624
 H          1.6219561573        1.2153538235        1.1068081717
 H          1.4080557135       -0.7375867279       -1.2345733535
 H          2.1111451457       -1.1038109426        0.3421824843
 H         -0.1044458175       -0.6394397558        1.4199457079
 H         -0.1523262511       -1.9790565871        0.2641086365
 H         -1.1283148381       -0.4128670436       -1.4674810168
 H         -2.8115368894        1.0326456645       -0.4579557973
 H         -2.0583380935        0.7777163510        1.1893333614
