  29
        -29.48703924
 C         -5.0602644822       -0.3772633525        0.0017269016
 C         -3.8005773780        0.4800449264        0.0038777052
 C         -2.5331157556       -0.3711286337       -0.0027251838
 C         -1.2666046272        0.4812575452       -0.0013977716
 C         -0.0000008952       -0.3711689583       -0.0031707994
 C          1.2666060067        0.4812527168       -0.0022928716
 C          2.5331153739       -0.3711315890        0.0005127143
 C          3.8005836739        0.4800546253       -0.0003753943
 C          5.0602626112       -0.3772709985        0.0034032846
 H         -5.0901843140       -1.0087820973       -0.8836687559
 H         -5.0859628005       -1.0193271587        0.8796447669
 H         -5.9502506875        0.2478630392        0.0076022924
 H         -3.8025221038        1.1301164414       -0.8741840368
 H         -3.7993449298        1.1208937444        0.8887012211
 H         -2.5315359463       -1.0209789849        0.8757797323
 H         -2.5351632793       -1.0130172288       -0.8870516226
 H         -1.2663209116        1.1256296059        0.8811695912
 H         -1.2666806301        1.1291628620       -0.8813636236
 H          0.0002671642       -1.0183853619        0.8772496353
 H         -0.0002704321       -1.0159476987       -0.8853712556
 H          1.2677606701        1.1264811031       -0.8842253344
 H          1.2652464049        1.1283097241        0.8783039577
 H          2.5340264247       -1.0189615938       -0.8794757350
 H          2.5326400867       -1.0150451236        0.8833749405
 H          3.8019489156        1.1231055837       -0.8835960093
 H          3.7999712613        1.1279347470        0.8793109489
 H          5.0885227728       -1.0172176332       -0.8759803518
 H          5.0875406525       -1.0109139208        0.8873672495
 H          5.9502577308        0.2478680359        0.0016726680
