! pbe def2-sv(p) def2/J RI DEFGRID1 loosescf d4 GCP(DFT/SV(P)) printgap
%output
    printlevel normal
end
* xyz 0 1
C -0.1296781811 2.2214318484 -1.7175424988
N -0.3381467864 1.2395842892 -0.6660880828
C -1.4494548146 0.3581737309 -0.9519459852
C -1.7966581324 -0.4714347174 0.2708816935
F -0.9353062573 -1.4780374098 0.5065006293
F -1.8590615725 0.2418612484 1.402313464
F -3.0047006741 -1.0611874973 0.1346183476
C 0.8713197655 0.5533900261 -0.304327268
C 1.5198072744 -0.3255248927 -1.1630846274
C 2.6833426917 -0.954439086 -0.7580436891
C 3.2044975962 -0.7100297949 0.5011963631
C 2.5607098117 0.167785823 1.3569893912
C 1.3965765373 0.7994285539 0.9560801123
H 0.0865082683 1.7676205996 -2.6928041836
H 0.7077875121 2.8510491864 -1.4286504184
H -1.0227421482 2.8374131595 -1.8021819655
H -2.3273436741 0.9681481713 -1.1822396705
H -1.2798093503 -0.3525845906 -1.779391426
H 1.1201317881 -0.5201546472 -2.1479148489
H 3.1834841166 -1.6377311119 -1.4277045889
H 4.1108597694 -1.2047315016 0.8148973478
H 2.9631467914 0.3588480333 2.3399941649
H 0.8777883996 1.4807326597 1.6119931356
*
