  15
  -23.1037473000000       0.333334509102985      !md1
 C         -0.6763414682       -2.1697440914       -0.0000014821
 C          0.2132369643       -0.9676879721        0.0000303534
 C          1.5968800699       -1.0874462500       -0.0000494617
 C          2.4169972113        0.0272051724        0.0000369362
 C          1.8619342605        1.2946941238       -0.0000048000
 C          0.4861120081        1.4434151760        0.0000219198
 C         -0.3205363260        0.3187653091        0.0001058311
 Cl        -2.0412635467        0.5282097902       -0.0000193988
 H         -1.3201297956       -2.1624812295       -0.8788430736
 H         -0.0899748709       -3.0845777595        0.0004523387
 H         -1.3207799059       -2.1620312634        0.8782440526
 H          2.0351043719       -2.0749145313       -0.0001685598
 H          3.4896391198       -0.0946538132       -0.0000776795
 H          2.4948697735        2.1689133799       -0.0003108737
 H          0.0373579966        2.4246370481       -0.0002738281
  15
  -23.1037473000000       0.333334509102985      !gc
 C         -0.6762916063       -2.1698209416       -0.0000111272
 C          0.2132358798       -0.9677365034       -0.0000818472
 C          1.5968198066       -1.0875114887       -0.0000250439
 C          2.4169328610        0.0272361448        0.0000262534
 C          1.8619631009        1.2946989919        0.0000092702
 C          0.4860759442        1.4434306306       -0.0000382332
 C         -0.3205201775        0.3188045598       -0.0000710037
 Cl        -2.0412516487        0.5282546495        0.0000594303
 H         -0.0899534003       -3.0845733398       -0.0016291508
 H         -1.3191413278       -2.1632305417        0.8794288203
 H         -1.3215749160       -2.1616028912       -0.8776359369
 H          2.0352018085       -2.0749012754       -0.0000125085
 H          3.4896013839       -0.0947253159        0.0000567748
 H          2.4949099138        2.1688677323        0.0000209992
 H          0.0374220852        2.4246721056       -0.0000346248
  15
  -23.1037472900000       0.333330981794029      !md1
 C         -0.6763788510       -2.1696745015        0.0001747613
 C          0.2132400564       -0.9676993474       -0.0000260891
 C          1.5968959143       -1.0874749512       -0.0001808569
 C          2.4169828144        0.0272298608       -0.0000281207
 C          1.8619454817        1.2947127041        0.0001357006
 C          0.4861073016        1.4434380860        0.0000667860
 C         -0.3204965653        0.3187906725        0.0000854205
 Cl        -2.0412616357        0.5281555647       -0.0001190169
 H         -1.3201827267       -2.1620435739        0.8789792774
 H         -1.3209699572       -2.1619731163       -0.8780057751
 H         -0.0901407468       -3.0845705062        0.0000081440
 H          2.0351897518       -2.0749085089       -0.0004024020
 H          3.4896485812       -0.0946986617       -0.0001237768
 H          2.4948714259        2.1688896123        0.0006165862
 H          0.0374430714        2.4246613740        0.0004020839
