  15
        -23.10374730
 C         -0.6763414682       -2.1697440914       -0.0000014821
 C          0.2132369643       -0.9676879721        0.0000303534
 C          1.5968800699       -1.0874462500       -0.0000494617
 C          2.4169972113        0.0272051724        0.0000369362
 C          1.8619342605        1.2946941238       -0.0000048000
 C          0.4861120081        1.4434151760        0.0000219198
 C         -0.3205363260        0.3187653091        0.0001058311
 Cl        -2.0412635467        0.5282097902       -0.0000193988
 H         -1.3201297956       -2.1624812295       -0.8788430736
 H         -0.0899748709       -3.0845777595        0.0004523387
 H         -1.3207799059       -2.1620312634        0.8782440526
 H          2.0351043719       -2.0749145313       -0.0001685598
 H          3.4896391198       -0.0946538132       -0.0000776795
 H          2.4948697735        2.1689133799       -0.0003108737
 H          0.0373579966        2.4246370481       -0.0002738281
