  16
        -19.84984424
 C         -2.7940552640        0.4997233885       -0.1266734939
 C         -1.3359229393        0.4138374206        0.3059829650
 C         -0.6842214925       -0.8870894234       -0.1592412942
 C          0.7820203167       -0.9643788156        0.2664222832
 C          1.6127378693        0.0883459902       -0.4047527176
 O          2.4485546573        0.7639358170        0.1249628272
 H         -3.2400337380        1.4296909130        0.2168013086
 H         -3.3645766606       -0.3284756398        0.2882958394
 H         -2.8743902584        0.4608764321       -1.2108973193
 H         -1.2752711656        0.4773896807        1.3945644584
 H         -0.7811741623        1.2611865431       -0.1041095396
 H         -0.7501697585       -0.9578806037       -1.2477679989
 H         -1.2269245555       -1.7355082384        0.2625790425
 H          1.1974397177       -1.9310454403       -0.0347252773
 H          0.8818714146       -0.8718840154        1.3492236863
 H          1.3970217952        0.1930387436       -1.4883091580
