  16
        -19.84984424
 C         -2.7940552640        0.4997233885       -0.1266734939
 C         -1.3359229393        0.4138374206        0.3059829650
 C         -0.6842214925       -0.8870894234       -0.1592412942
 C          0.7820203167       -0.9643788156        0.2664222832
 C          1.6127378693        0.0883459902       -0.4047527176
 O          2.4485546573        0.7639358170        0.1249628272
 H         -3.2400337380        1.4296909130        0.2168013086
 H         -3.3645766606       -0.3284756398        0.2882958394
 H         -2.8743902584        0.4608764321       -1.2108973193
 H         -1.2752711656        0.4773896807        1.3945644584
 H         -0.7811741623        1.2611865431       -0.1041095396
 H         -0.7501697585       -0.9578806037       -1.2477679989
 H         -1.2269245555       -1.7355082384        0.2625790425
 H          1.1974397177       -1.9310454403       -0.0347252773
 H          0.8818714146       -0.8718840154        1.3492236863
 H          1.3970217952        0.1930387436       -1.4883091580
  16
        -19.84965675
 C         -1.6150044815        1.1421666163        0.1252393678
 C         -1.7690062923       -0.3064016984       -0.3184231617
 C         -0.7269146071       -1.2388719881        0.2994082698
 C          0.6892512749       -0.9802132721       -0.2166167586
 C          1.3310445926        0.2486318387        0.3535931410
 O          2.0602453907        0.9929213049       -0.2409673503
 H         -2.3916144607        1.7579657057       -0.3224068998
 H         -0.6504505928        1.5417244450       -0.1785600813
 H         -1.6970916251        1.2225471858        1.2072657026
 H         -1.6990862130       -0.3621194471       -1.4069184274
 H         -2.7624328039       -0.6611043487       -0.0337732384
 H         -0.9983759522       -2.2699062851        0.0627851130
 H         -0.7420632050       -1.1329421123        1.3868529853
 H          0.7071084456       -0.9295107993       -1.3068522544
 H          1.3333202857       -1.8117473238        0.0893172443
 H          1.1100927888        0.4053851630        1.4292146649
  16
        -19.84947089
 C         -2.8788291950        0.6210338242       -0.0281125288
 C         -1.7978027744       -0.4411198859        0.1283241790
 C         -0.4001240428        0.1540066049       -0.0157954316
 C          0.6914498188       -0.9002669664        0.1390406642
 C          2.0743626569       -0.3370017203        0.0009141797
 O          2.3493641250        0.8096312104       -0.2089444187
 H         -3.8675248162        0.1806009190        0.0771901174
 H         -2.8134524501        1.0892433741       -1.0075940713
 H         -2.7646205934        1.3945442376        0.7278728750
 H         -1.9411343410       -1.2179480504       -0.6268101263
 H         -1.8921871529       -0.9123589496        1.1097822523
 H         -0.2514233398        0.9308850225        0.7364708660
 H         -0.3001801176        0.6261238934       -0.9949128569
 H          0.5785472365       -1.6895827040       -0.6103670785
 H          0.6272159892       -1.3854302602        1.1177461280
 H          2.8701474566       -1.1030891257        0.1136068142
  16
        -19.84924492
 C         -3.0992131335        0.2986405050       -0.1181305920
 C         -1.8430888688       -0.5301422033        0.1203275228
 C         -0.5788339306        0.3180864138        0.0015476782
 C          0.6850941718       -0.5134427438        0.2272399480
 C          1.9226699386        0.3313728350        0.1924436292
 O          2.9333719633        0.0666302708       -0.3939111986
 H         -3.0837712578        0.7372644992       -1.1133370662
 H         -3.1697222267        1.1042086299        0.6094990338
 H         -3.9878486146       -0.3215272020       -0.0304141179
 H         -1.8017916289       -1.3435808548       -0.6070608299
 H         -1.8863442355       -0.9773618323        1.1160912656
 H         -0.6164728898        1.1275902328        0.7345576491
 H         -0.5397160001        0.7698781513       -0.9920274715
 H          0.7666688775       -1.3109019110       -0.5132056323
 H          0.6389316156       -0.9720451396        1.2201928227
 H          1.8339681063        1.2666701880        0.7827158417
  16
        -19.84913596
 C         -2.0734578859        0.7871674341       -0.5308355169
 C         -1.4672696359        0.1180062633        0.6970685102
 C         -0.6766256486       -1.1486455802        0.3633270217
 C          0.5702829215       -0.8667840914       -0.4769065570
 C          1.5330380191        0.0318730825        0.2392340126
 O          2.1141558983        0.9615438437       -0.2446074066
 H         -2.6762812127        0.0776760051       -1.0940278289
 H         -1.2992226741        1.1817564606       -1.1831856199
 H         -2.7111454591        1.6147837427       -0.2297204798
 H         -2.2701497968       -0.1497774988        1.3880564055
 H         -0.8124939831        0.8277964606        1.2079616529
 H         -1.3207947409       -1.8438524693       -0.1789621443
 H         -0.3736073250       -1.6328125103        1.2951163755
 H          0.3115577662       -0.4318200318       -1.4423397226
 H          1.0965199913       -1.8087942028       -0.6604248779
 H          1.6881357729       -0.2475640137        1.3020418977
  16
        -19.84910432
 C         -2.5909692075        0.6933674099       -0.1584503820
 C         -1.2747127336        0.2732958765        0.4831659220
 C         -0.5241903002       -0.7346632907       -0.3848808155
 C          0.7947478234       -1.1695177722        0.2499354363
 C          1.8589879134       -0.1122081681        0.2057822762
 O          1.7895578116        0.9406096013       -0.3607159381
 H         -3.2369909857       -0.1695490940       -0.3084516778
 H         -2.4103224581        1.1585229535       -1.1246568460
 H         -3.1133085092        1.4074830366        0.4735907774
 H         -1.4734288741       -0.1687242393        1.4632632789
 H         -0.6475697317        1.1534852102        0.6317401981
 H         -0.3138342572       -0.2831407519       -1.3560673379
 H         -1.1536581204       -1.6124637886       -0.5469982068
 H          1.2035084389       -2.0419344552       -0.2699048308
 H          0.6488845014       -1.4633214105        1.2929860127
 H          2.7785776258       -0.4021561858        0.7567600251
  16
        -19.84884682
 C         -2.5891487853        0.1968590461        0.6644087419
 C         -1.8365832631       -0.1607469698       -0.6124345125
 C         -0.3619558468        0.2358485283       -0.5706221790
 C          0.4429978154       -0.5575068052        0.4547203920
 C          1.9118533167       -0.2638905130        0.3930027089
 O          2.4461255891        0.5046873004       -0.3545883767
 H         -2.4786534090        1.2560604656        0.8863500903
 H         -2.2203217652       -0.3741015375        1.5129809666
 H         -3.6488559915       -0.0192522450        0.5499817050
 H         -2.3075419671        0.3521868955       -1.4535919084
 H         -1.9189502334       -1.2350450994       -0.7945128583
 H         -0.2740203617        1.3001387491       -0.3447553189
 H          0.0826842898        0.0747763652       -1.5547571259
 H          0.3139043685       -1.6331483242        0.2998048410
 H          0.1103793018       -0.3414698334        1.4732444088
 H          2.5033567281       -0.8439906855        1.1324480066
  16
        -19.84864344
 C         -2.6493303632        0.6153019890       -0.2564830328
 C         -1.9198710914       -0.4577376982        0.5431154103
 C         -0.5398931852       -0.7959538194       -0.0216811354
 C          0.4537414308        0.3601202621        0.1126796443
 C          1.7980084789        0.0014550782       -0.4422837274
 O          2.8526949902        0.2204564656        0.0829493426
 H         -2.1333171098        1.5702863538       -0.1975418477
 H         -3.6550696843        0.7539042639        0.1327939256
 H         -2.7250375869        0.3262812511       -1.3026400137
 H         -2.5227300854       -1.3685050900        0.5428008718
 H         -1.8157085513       -0.1318113597        1.5800831380
 H         -0.6378588229       -1.0689756679       -1.0750620104
 H         -0.1434621221       -1.6625769556        0.5122567305
 H          0.5582307308        0.6661262250        1.1550137032
 H          0.0950611695        1.2169905103       -0.4644255177
 H          1.7467928737       -0.5024894080       -1.4295578163
  16
        -19.84854505
 C         -2.5438334687        0.7955350018        0.1627458041
 C         -1.9748414861       -0.6174958474        0.1124864142
 C         -0.5594049421       -0.6758222736       -0.4628046278
 C          0.4718822846        0.0319352345        0.4186612136
 C          1.8716643950       -0.2250764183       -0.0515078359
 O          2.7285182160        0.6025553807       -0.1796253611
 H         -1.9871135517        1.4189786361        0.8571971652
 H         -3.5809104918        0.7710030262        0.4889168548
 H         -2.5060031485        1.2559420001       -0.8220155438
 H         -2.6236310252       -1.2373813526       -0.5104886201
 H         -1.9750034472       -1.0460138702        1.1173752327
 H         -0.5546316260       -0.2213805406       -1.4557573551
 H         -0.2682852847       -1.7234896379       -0.5745651648
 H          0.4010296770       -0.3636278399        1.4371329498
 H          0.2972598859        1.1073517220        0.4523184074
 H          2.0718441558       -1.2926975049       -0.2787824512
  16
        -19.84826109
 C         -2.3374560339        0.4238740010       -0.5116989025
 C         -1.2781989893        0.4892274952        0.5828985382
 C         -0.4334127209       -0.7819770343        0.6824875330
 C          0.5005290630       -0.9793212570       -0.5099572907
 C          1.6483880377       -0.0137222002       -0.5382687082
 O          1.9286648784        0.7819238050        0.3120532212
 H         -1.8874409782        0.3684004545       -1.5001794144
 H         -2.9631535040        1.3127093644       -0.4806558470
 H         -2.9750414912       -0.4474765876       -0.3743711586
 H         -1.7763244295        0.6442608904        1.5423003033
 H         -0.6218975348        1.3434049755        0.4119716124
 H         -1.0934453294       -1.6478863946        0.7695436741
 H          0.1760748463       -0.7271685346        1.5864823679
 H         -0.0383437038       -0.8980707429       -1.4562273562
 H          0.9398956017       -1.9818474138       -0.4868500505
 H          2.2678822211       -0.1072156572       -1.4555684694
  16
        -19.84815462
 C         -1.5377527751        1.1482196872        0.2236062581
 C         -1.7538242944       -0.3355960327       -0.0445530963
 C         -0.4891003275       -1.0463333960       -0.5260331856
 C          0.6334650153       -1.0137249851        0.5121853004
 C          1.5070334234        0.2041776712        0.4099913625
 O          1.6293203192        0.9038536103       -0.5545619338
 H         -2.4794755465        1.6268281185        0.4832926188
 H         -1.1305968082        1.6379775076       -0.6574787676
 H         -0.8416314400        1.3005249827        1.0460037948
 H         -2.5255156788       -0.4503803939       -0.8089071178
 H         -2.1175642707       -0.8214106545        0.8651156643
 H         -0.1278184950       -0.5668252682       -1.4377628239
 H         -0.7376483170       -2.0826689784       -0.7625130537
 H          1.3084112081       -1.8635007281        0.3639687705
 H          0.2374825833       -1.0951533044        1.5262975176
 H          2.0963112774        0.3991856011        1.3305610059
  16
        -19.84791757
 C         -2.5882415863        0.7595372550       -0.0883995759
 C         -1.9686242927       -0.5496877262        0.3866303571
 C         -0.5933036211       -0.8209130442       -0.2245653832
 C          0.4665194539        0.1757867255        0.2330016653
 C          1.8460869079       -0.1517333383       -0.2595434946
 O          2.8280164787        0.5001628326       -0.0397268233
 H         -2.6363483024        0.7859667664       -1.1748826807
 H         -2.0116862515        1.6152655816        0.2529949158
 H         -3.5988386814        0.8591884177        0.3004251114
 H         -2.6344235397       -1.3725682579        0.1172989119
 H         -1.8837356511       -0.5379868703        1.4756027695
 H         -0.6725736742       -0.7914580578       -1.3137425556
 H         -0.2768704604       -1.8277760208        0.0591188758
 H          0.5050694255        0.2170273405        1.3257797815
 H          0.2272038843        1.1862411865       -0.1068938185
 H          1.9051162430       -1.0781669514       -0.8666427214
  16
        -19.84680541
 C         -2.0044848649        1.0050343950        0.3349801162
 C         -1.8554553130       -0.4313122429       -0.1527182836
 C         -0.4286004847       -0.7535200367       -0.5968672787
 C          0.5660764759       -0.8221777897        0.5663858432
 C          1.7592822660        0.0710338794        0.3901668098
 O          1.9663580699        0.8031349770       -0.5348855803
 H         -1.7235640204        1.7005154182       -0.4523811396
 H         -1.3709642161        1.1988766664        1.1975412130
 H         -3.0349739126        1.2048635602        0.6199014344
 H         -2.5266333528       -0.5856886676       -1.0001797875
 H         -2.1586924514       -1.1239748969        0.6366607814
 H         -0.0905793938        0.0196312849       -1.2908394326
 H         -0.4274906158       -1.7020090130       -1.1360806068
 H          0.9427495599       -1.8369305050        0.7178208109
 H          0.0922189155       -0.5312062815        1.5078178260
 H          2.4789283423        0.0008615626        1.2322028877
  16
        -19.84535882
 C         -1.9088575551        1.0610668983        0.1045574685
 C         -1.8676302611       -0.4592514105        0.0149008931
 C         -0.5190505856       -1.0246864497       -0.4280206644
 C          0.6352035542       -0.7815718513        0.5675964069
 C          1.3459287840        0.5023469419        0.2495952538
 O          2.2976056266        0.5903538894       -0.4747549399
 H         -2.9310826970        1.3989108103        0.2603172782
 H         -1.5370132157        1.5085632044       -0.8145202807
 H         -1.3079055354        1.4221518295        0.9348546184
 H         -2.6178623603       -0.7879685334       -0.7083780681
 H         -2.1372581475       -0.8873546035        0.9833633098
 H         -0.2461484328       -0.6071240989       -1.3996229965
 H         -0.6323316636       -2.1029436566       -0.5564996234
 H          1.3565716648       -1.5946198245        0.4696970482
 H          0.2469486089       -0.7607729705        1.5859670863
 H          0.9143462562        1.4066588761        0.7198161417
