! r2scan-3c def2/J RI DEFGRID2 scfconv6 printgap
%output
    printlevel normal
end
* xyz 0 1
C -1.0621111937 -0.134807694 0.7215116416
C 0.2283463777 0.6134953187 0.3431804067
C 1.200714171 -0.2983078038 -0.4357204218
O 1.5832756485 -1.4388110989 0.2951585127
O -0.0673932273 1.7672650715 -0.4105350638
O -1.8471369587 -0.4159669725 -0.4172087433
H -1.6751792555 0.5095312359 1.3557147788
H -0.8080073535 -1.0464229732 1.2697242571
H 0.7175017238 0.9613795171 1.2603446439
H 2.0700140692 0.2977760648 -0.7376093619
H 0.7155199523 -0.6677514645 -1.3426449311
H 2.1575007469 -1.1761504185 1.0269923073
H -0.8059068701 1.5506577122 -1.0029412717
H -1.4859309566 -1.1893207824 -0.8705600759
*
