  24
        -28.54439875
 C          3.5199632087       -0.9226857025       -0.9003084291
 C          2.3383044196       -0.6472857414        0.0212239636
 C          2.0082172424        0.8413612616        0.0852327326
 C          0.8214029901        1.1376020039        1.0114983419
 C         -0.4476487918        0.5245575810        0.4923086491
 C         -1.1183687674        1.1059442059       -0.5771938980
 C         -2.2694648247        0.5333329590       -1.0864588435
 C         -2.7687941293       -0.6330433732       -0.5317818696
 C         -2.1109202993       -1.2193296699        0.5352799633
 C         -0.9588114269       -0.6436760575        1.0420250820
 H          3.7424778368       -1.9867706255       -0.9306925984
 H          4.4069732404       -0.3963178436       -0.5532914687
 H          3.2992929363       -0.5897694482       -1.9123127662
 H          2.5703241048       -1.0089199444        1.0259223429
 H          1.4633404548       -1.1948035742       -0.3358103574
 H          2.8833635843        1.3891030857        0.4434330529
 H          1.7771843143        1.2010813219       -0.9199570081
 H          0.6970430146        2.2207476111        1.0868364121
 H          1.0399947233        0.7502880645        2.0087745288
 H         -0.7348890429        2.0187312783       -1.0115685284
 H         -2.7799571317        0.9982408918       -1.9176817695
 H         -3.6679161993       -1.0813717129       -0.9284739692
 H         -2.4957515129       -2.1284763392        0.9746051964
 H         -0.4500249545       -1.1067088484        1.8759433024
