  12
  -13.7370103800000       4.852586035793066E-002 !mtd5
 C         -1.8785651961       -0.5293221797       -0.2992005230
 C         -0.9865639752        0.3620557721        0.5437835484
 S          0.6715215622        0.6032218081       -0.1805941712
 C          1.4000852056       -1.0290657009        0.1352979108
 H         -2.8743512085       -0.5754110876        0.1377631526
 H         -1.9582706006       -0.1337284384       -1.3090176592
 H         -1.4819786944       -1.5408167644       -0.3528044805
 H         -0.8496572275       -0.0393962202        1.5485602213
 H         -1.4019452844        1.3665654575        0.6163472718
 H          0.8985299716       -1.7847661857       -0.4619698028
 H          1.3231362451       -1.2596356784        1.1943194583
 H          2.4430205628       -0.9640008967       -0.1557170582
  12
  -13.7370103800000       4.852586035793066E-002 !md4
 C         -1.8783665353       -0.5295505501       -0.2991616804
 C         -0.9865469210        0.3621751494        0.5436703726
 S          0.6715535213        0.6033296130       -0.1805025431
 C          1.3998184959       -1.0291854760        0.1351760927
 H         -2.8740672457       -0.5758264588        0.1378706769
 H         -1.9582005043       -0.1340386729       -1.3090086334
 H         -1.4816468761       -1.5410085934       -0.3525627439
 H         -0.8498889459       -0.0389049168        1.5486451132
 H         -1.4019547311        1.3667041417        0.6157999009
 H          2.4428468702       -0.9641199988       -0.1555624456
 H          0.8983513673       -1.7847130413       -0.4624312191
 H          1.3226349499       -1.2599852096        1.1941533914
  12
  -13.7370103800000       4.852586035793066E-002 !mtd12
 C         -1.8785999313       -0.5292238423       -0.2992300258
 C         -0.9865992685        0.3620802174        0.5438498158
 S          0.6714615071        0.6031371466       -0.1806189511
 C          1.4002709820       -1.0290377974        0.1353283299
 H         -1.9591456960       -0.1330451334       -1.3087845304
 H         -1.4816454731       -1.5405488464       -0.3536026018
 H         -2.8740644167       -0.5760132283        0.1383463415
 H         -0.8497623599       -0.0393409716        1.5486638712
 H         -1.4018670826        1.3666855497        0.6163131260
 H          2.4431361489       -0.9637894780       -0.1561116138
 H          0.8986037964       -1.7848491540       -0.4617860030
 H          1.3237597726       -1.2593912849        1.1944301130
  12
  -13.7370103700000       4.852534686254519E-002 !mtd5
 C         -1.8784140231       -0.5293421815       -0.2992336920
 C         -0.9865533309        0.3621697466        0.5438410379
 S          0.6714536771        0.6031733459       -0.1805869286
 C          1.4000798645       -1.0290657631        0.1352672329
 H         -1.9594415036       -0.1329623372       -1.3086480538
 H         -1.4812608446       -1.5405522049       -0.3540105599
 H         -2.8736869705       -0.5765641584        0.1386053967
 H         -0.8497926518       -0.0391274234        1.5487050516
 H         -1.4018032740        1.3667570749        0.6161742603
 H          0.8977894633       -1.7848572809       -0.4611939877
 H          1.3241958749       -1.2591931016        1.1945160796
 H          2.4427783060       -0.9642679789       -0.1568217035
  12
  -13.7370103700000       4.852534686254519E-002 !mtd13
 C         -1.8781527896       -0.5297875367       -0.2991168337
 C         -0.9867549655        0.3625462038        0.5435042505
 S          0.6716073288        0.6033241159       -0.1803232565
 C          1.3997083725       -1.0292800213        0.1349191433
 H         -1.4808932155       -1.5410426849       -0.3524162157
 H         -2.8737431186       -0.5765019692        0.1381480753
 H         -1.9584824436       -0.1344908345       -1.3090432063
 H         -0.8502507132       -0.0380211009        1.5486927167
 H         -1.4022804837        1.3670884251        0.6150009467
 H          2.4433454316       -0.9636612479       -0.1534391970
 H          0.8997584816       -1.7842100389       -0.4646585227
 H          1.3201537855       -1.2613494279        1.1934238154
  12
  -13.7370103700000       4.852534686254519E-002 !mtd5
 C         -1.8898369733       -0.5696627205        0.0605361312
 C         -0.9546612082        0.4810586668       -0.5071510999
 S          0.6553030959        0.5426157525        0.3510964770
 C          1.4131456078       -0.9817563574       -0.2787728052
 H         -2.8566947968       -0.5109052632       -0.4357429620
 H         -1.4900269357       -1.5703314377       -0.0880785574
 H         -2.0338832619       -0.4079944517        1.1262283073
 H         -1.3714123020        1.4793618217       -0.3785139063
 H         -0.7549778100        0.3129500796       -1.5660716417
 H          1.4022014517       -0.9678218361       -1.3651736600
 H          0.8816321272       -1.8489615388        0.1016637128
 H          2.4360383083       -0.9908733504        0.0821045221
  12
  -13.7370103700000       4.852534686254519E-002 !mtd5
 C         -1.8889893669       -0.5703522733        0.0603397787
 C         -0.9547760574        0.4815832150       -0.5065746599
 S          0.6554127290        0.5428633993        0.3509881999
 C          1.4122540420       -0.9820531932       -0.2789200783
 H         -2.8562309429       -0.5115825589       -0.4352629037
 H         -1.4886449724       -1.5705805457       -0.0899958718
 H         -2.0325396898       -0.4103563623        1.1264045534
 H         -1.3721755091        1.4794446268       -0.3764084754
 H         -0.7555917572        0.3150585362       -1.5659280565
 H          2.4354585670       -0.9915111240        0.0811386137
 H          1.4003323451       -0.9685656848       -1.3653385365
 H          0.8806739537       -1.8488565036        0.1024762292
  12
  -13.7370103700000       4.852534686254519E-002 !md2
 C         -1.8783394081       -0.5294459546       -0.2992096216
 C         -0.9865737198        0.3621847311        0.5438107337
 S          0.6714992208        0.6032665589       -0.1805731595
 C          1.3999124868       -1.0291288360        0.1352319899
 H         -1.9593524456       -0.1331514943       -1.3086985229
 H         -1.4808244602       -1.5405158246       -0.3539161382
 H         -2.8736535387       -0.5769696424        0.1385328070
 H         -0.8496063378       -0.0391931612        1.5486309754
 H         -1.4020032217        1.3666999718        0.6162997497
 H          1.3228454803       -1.2598279081        1.1942202244
 H          2.4428150094       -0.9641432195       -0.1555921814
 H          0.8984576371       -1.7848214044       -0.4620941317
  12
  -13.7370103600000       4.852483337250226E-002 !mtd2
 C         -1.8894227422       -0.5702270805        0.0602915563
 C         -0.9549264245        0.4815511243       -0.5065049446
 S          0.6555194945        0.5427533525        0.3509478898
 C          1.4125586572       -0.9819398880       -0.2788653942
 H         -1.4897164307       -1.5707128558       -0.0904475701
 H         -2.0324540163       -0.4103321144        1.1264625196
 H         -2.8568606314       -0.5107247592       -0.4350398761
 H         -1.3719301023        1.4795602536       -0.3761329923
 H         -0.7557578001        0.3150353591       -1.5658022111
 H          2.4358366793       -0.9913972643        0.0813952071
 H          1.4010204426       -0.9683870253       -1.3652686734
 H          0.8810741003       -1.8489504895        0.1022935729
  12
  -13.7370103600000       4.852483337250226E-002 !mtd8
 C         -1.8889287242       -0.5705754480        0.0601923636
 C         -0.9549667619        0.4818927812       -0.5062544497
 S          0.6555232035        0.5428165126        0.3509396111
 C          1.4121081268       -0.9820526185       -0.2789865962
 H         -2.8564895025       -0.5110587865       -0.4346100317
 H         -1.4889358250       -1.5707650052       -0.0913428602
 H         -2.0316446987       -0.4115321998        1.1264958258
 H         -1.3721689097        1.4797393559       -0.3751830651
 H         -0.7560875777        0.3161188578       -1.5657341726
 H          0.8810492080       -1.8490245235        0.1027608941
 H          2.4354265581       -0.9909755738        0.0805210123
 H          1.3999074684       -0.9689967000       -1.3655429932
  12
  -13.7370103500000       4.852431988798424E-002 !mtd7
 C         -1.8784872066       -0.5291285998       -0.2992865524
 C         -0.9864849758        0.3619511400        0.5440582094
 S          0.6714438263        0.6031106759       -0.1807525871
 C          1.4000792412       -1.0288799677        0.1354473972
 H         -2.8742088048       -0.5754789426        0.1377332259
 H         -1.9584167134       -0.1333087693       -1.3090276423
 H         -1.4819420007       -1.5406454678       -0.3531388574
 H         -0.8493252814       -0.0398099088        1.5486587596
 H         -1.4017426454        1.3664402867        0.6169897831
 H          1.3243261045       -1.2587049750        1.1947646525
 H          2.4427864544       -0.9644619181       -0.1569026103
 H          0.8976795957       -1.7849584795       -0.4605865045
  12
  -13.7370103200000       4.852277946684935E-002 !gc
 C         -1.8892637865       -0.5704384968        0.0602077763
 C         -0.9549729069        0.4817226114       -0.5062982357
 S          0.6555444006        0.5428531776        0.3509023840
 C          1.4124144291       -0.9820934306       -0.2788871415
 H         -2.0334866080       -0.4101214814        1.1260996731
 H         -2.8562180307       -0.5118726940       -0.4359740881
 H         -1.4887541419       -1.5706625853       -0.0895339840
 H         -1.3720857291        1.4796336296       -0.3758340674
 H         -0.7557474607        0.3154166569       -1.5655885721
 H          0.8830247922       -1.8489970531        0.1052839559
 H          2.4364787659       -0.9898517584        0.0784778792
 H          1.3975868362       -0.9703233432       -1.3652291073
  12
  -13.7370103200000       4.852277946684935E-002 !mtd12
 C         -1.8783153905       -0.5293653378       -0.2992199497
 C         -0.9865491250        0.3620878347        0.5438959141
 S          0.6714920081        0.6032354027       -0.1806392150
 C          1.3999080884       -1.0290737611        0.1353022439
 H         -1.4816548155       -1.5408425338       -0.3531538351
 H         -2.8739705052       -0.5758499840        0.1378502605
 H         -1.9582942650       -0.1334943781       -1.3088862951
 H         -0.8497548817       -0.0393197237        1.5487248922
 H         -1.4019182806        1.3666176660        0.6163171096
 H          0.8958755945       -1.7852554191       -0.4592320328
 H          1.3258582129       -1.2580439888        1.1949885593
 H          2.4422395980       -0.9652056017       -0.1588539489
  12
  -13.7370103100000       4.852226600406553E-002 !gc
 C         -1.8787589499       -0.5287202168       -0.2993590295
 C         -0.9864469014        0.3616172232        0.5443234693
 S          0.6713312086        0.6030126926       -0.1809911534
 C          1.4005344390       -1.0287888684        0.1357435168
 H         -1.4806240584       -1.5394242266       -0.3568721574
 H         -2.8733486949       -0.5779092823        0.1399587419
 H         -1.9617117760       -0.1303016404       -1.3078630543
 H         -0.8488799194       -0.0409173556        1.5485705689
 H         -1.4015826841        1.3661385735        0.6181354207
 H          1.3266916244       -1.2574059611        1.1954493989
 H          2.4426348670       -0.9645070882       -0.1585460422
 H          0.8969196441       -1.7854574928       -0.4585797639
  12
  -13.7370103000000       4.852175254662392E-002 !mtd9
 C         -1.8898657317       -0.5695492700        0.0606377223
 C         -0.9545670539        0.4808157513       -0.5073788484
 S          0.6552761812        0.5426706424        0.3511061420
 C          1.4131278136       -0.9817526902       -0.2787452768
 H         -1.4900553222       -1.5702784562       -0.0872780585
 H         -2.0339250893       -0.4072956824        1.1262128776
 H         -2.8566950978       -0.5112185981       -0.4357268275
 H         -1.3712352407        1.4791706410       -0.3791687096
 H         -0.7546727228        0.3122917141       -1.5661827064
 H          0.8792458210       -1.8487317032        0.0992763533
 H          2.4348276317       -0.9924918594        0.0853846723
 H          1.4056756600       -0.9662688955       -1.3652338706
  12
  -13.7370103000000       4.852175254662392E-002 !mtd2
 C         -1.8896860329       -0.5696357003        0.0606085486
 C         -0.9544954768        0.4809402385       -0.5073077500
 S          0.6552009108        0.5426576766        0.3511377831
 C          1.4130375209       -0.9817807190       -0.2787691999
 H         -2.0338026792       -0.4075733864        1.1262105335
 H         -2.8564811223       -0.5112618904       -0.4359383128
 H         -1.4897067614       -1.5703329549       -0.0876368634
 H         -1.3713059466        1.4792628959       -0.3790851390
 H         -0.7545840908        0.3125265504       -1.5661486736
 H          2.4365693854       -0.9895807199        0.0802586739
 H          1.4000889666       -0.9684371996       -1.3651097527
 H          0.8828637290       -1.8491332115        0.1035122797
  12
  -13.7370103000000       4.852175254662392E-002 !mtd14
 C         -1.8898407322       -0.5696926193        0.0604966050
 C         -0.9546833373        0.4811478936       -0.5071068243
 S          0.6552863995        0.5425912073        0.3510988995
 C          1.4131975863       -0.9817730902       -0.2787946700
 H         -2.0313820893       -0.4100371242        1.1268193431
 H         -2.8577350307       -0.5088154256       -0.4334634988
 H         -1.4915404644       -1.5705173391       -0.0911113631
 H         -1.3714424660        1.4794480399       -0.3781814482
 H         -0.7549986345        0.3133317835       -1.5661108684
 H          1.4042701502       -0.9668453582       -1.3652315676
 H          0.8804347754       -1.8490185535        0.0999075669
 H          2.4354907152       -0.9918488503        0.0839145569
  12
  -13.7370102500000       4.851918534118859E-002 !mtd1
 C         -1.8888951589       -0.5707794430        0.0600610660
 C         -0.9551900117        0.4821248431       -0.5059224019
 S          0.6556081055        0.5428790626        0.3508435481
 C          1.4121319071       -0.9822391209       -0.2789958839
 H         -1.4905273768       -1.5710337266       -0.0955153404
 H         -2.0283078381       -0.4143271377        1.1272344990
 H         -2.8577759742       -0.5085043149       -0.4319361127
 H         -1.3725499982        1.4798055962       -0.3743622879
 H         -0.7563922321        0.3167800426       -1.5654353709
 H          1.3992677073       -0.9692660853       -1.3653935500
 H          0.8809845630       -1.8488841685        0.1033114727
 H          2.4356343040       -0.9911663643        0.0802353094
  12
  -13.7356019300000       1.093186954423658E-002 !mtd8
 C         -2.1763094481        0.2696071662       -0.1275407934
 C         -0.9171286436       -0.3931734902        0.3948458031
 S          0.5651926993        0.3733378851       -0.3587480541
 C          1.8317335545       -0.6312728038        0.4641254114
 H         -2.1724575809        1.3300893526        0.1124474470
 H         -2.2393653852        0.1628327829       -1.2078001277
 H         -3.0535357671       -0.1899754772        0.3233948912
 H         -0.8982601204       -1.4548177556        0.1429487561
 H         -0.8303060146       -0.2751570253        1.4762451566
 H          1.6941216713       -1.6771195747        0.2023285055
 H          1.7634386927       -0.4940598391        1.5401268578
 H          2.7938655010       -0.2818796074        0.1052701422
  12
  -13.7356019300000       1.093186954423658E-002 !mtd1
 C         -2.1762478414        0.2697271209       -0.1272546049
 C         -0.9170179192       -0.3936539570        0.3943930357
 S          0.5652260363        0.3735660696       -0.3586881512
 C          1.8315085632       -0.6313474968        0.4641743051
 H         -3.0533599686       -0.1898837289        0.3238040488
 H         -2.1722353712        1.3301977220        0.1129805697
 H         -2.2397891619        0.1631346339       -1.2074919768
 H         -0.8981402465       -1.4550142207        0.1412509176
 H         -0.8301653173       -0.2769205143        1.4759602681
 H          1.7626885167       -0.4949933962        1.5401892016
 H          2.7937178013       -0.2816291787        0.1060470799
 H          1.6943518852       -1.6770504386        0.2017185242
  12
  -13.7356018700000       1.093117548339701E-002 !md1
 C         -2.1760695157        0.2697478325       -0.1271788132
 C         -0.9170000443       -0.3938029396        0.3943548793
 S          0.5651900705        0.3736482392       -0.3587169925
 C          1.8313583026       -0.6314148203        0.4642145889
 H         -2.1719861692        1.3300771562        0.1136548136
 H         -2.2393886435        0.1637064648       -1.2074920200
 H         -3.0532236722       -0.1901239528        0.3236138291
 H         -0.8980962376       -1.4551098972        0.1410901355
 H         -0.8301131490       -0.2770457962        1.4758721948
 H          2.7933686634       -0.2838479945        0.1035428856
 H          1.6921998021       -1.6773905683        0.2040606409
 H          1.7649041073       -0.4927073726        1.5401050082
  12
  -13.7356018700000       1.093117548339701E-002 !mtd8
 C         -2.1760548067        0.2700736715       -0.1269759956
 C         -0.9171214156       -0.3940892373        0.3940129551
 S          0.5651697637        0.3735655390       -0.3586858735
 C          1.8315416466       -0.6313213161        0.4642142546
 H         -3.0533523991       -0.1912217967        0.3220373116
 H         -2.1727027333        1.3299382744        0.1162206112
 H         -2.2385686008        0.1664256043       -1.2076099054
 H         -0.8985512862       -1.4552232749        0.1402543957
 H         -0.8301306692       -0.2779662921        1.4755641503
 H          1.6948935819       -1.6770822910        0.2016246613
 H          1.7621110322       -0.4953677345        1.5403451236
 H          2.7936979038       -0.2808993477        0.1066829812
  12
  -13.7356018600000       1.093105981086439E-002 !gc
 C         -2.1762342654        0.2684214706       -0.1288142525
 C         -0.9169838847       -0.3913624669        0.3970055982
 S          0.5651966075        0.3730938014       -0.3591182202
 C          1.8315055338       -0.6313375145        0.4640688263
 H         -2.1731525643        1.3299977944        0.1063413060
 H         -2.2388094628        0.1566599201       -1.2085592564
 H         -3.0532441703       -0.1897450855        0.3238286992
 H         -0.8973465762       -1.4540106079        0.1494764398
 H         -0.8310729109       -0.2688377703        1.4779847940
 H          1.7625936257       -0.4948178478        1.5400914686
 H          2.7935942094       -0.2810980542        0.1060146984
 H          1.6949108105       -1.6771522960        0.2016699643
  12
  -13.7356018300000       1.093071280065175E-002 !mtd7
 C         -2.1761897988        0.2683992013       -0.1289446785
 C         -0.9169770352       -0.3912038906        0.3972634745
 S          0.5651406621        0.3730126536       -0.3591826870
 C          1.8315838104       -0.6313164161        0.4640986292
 H         -3.0533911001       -0.1900344508        0.3231077968
 H         -2.1734672117        1.3299341525        0.1064074505
 H         -2.2381192631        0.1568089481       -1.2087435572
 H         -0.8972944481       -1.4539356647        0.1502115177
 H         -0.8311158004       -0.2682152523        1.4781934297
 H          2.7937687026       -0.2803560792        0.1068913679
 H          1.6955386213       -1.6770097702        0.2008023136
 H          1.7617886761       -0.4954904030        1.5401544363
  12
  -13.7356018300000       1.093071280065175E-002 !gc
 C         -2.1761077868        0.2683431485       -0.1292622997
 C         -0.9169544696       -0.3907995901        0.3978417780
 S          0.5650423208        0.3727735187       -0.3593156900
 C          1.8316840465       -0.6311596512        0.4641309080
 H         -2.2389302583        0.1543152664       -1.2087862898
 H         -3.0532540690       -0.1886181596        0.3245038707
 H         -2.1726635494        1.3304586069        0.1036330915
 H         -0.8969182516       -1.4537482047        0.1516376694
 H         -0.8309791036       -0.2668263475        1.4786547194
 H          1.6928236590       -1.6774036800        0.2047236243
 H          1.7645939933       -0.4916522680        1.5398258157
 H          2.7937231280       -0.2832353223        0.1035717334
  12
  -13.7356018300000       1.093071280065175E-002 !mtd14
 C         -2.1762003562        0.2697812371       -0.1272181870
 C         -0.9170566141       -0.3937449302        0.3943470705
 S          0.5652050396        0.3735624523       -0.3587129909
 C          1.8315176810       -0.6313720721        0.4641846263
 H         -2.2414059359        0.1608078489       -1.2070643543
 H         -3.0531234497       -0.1876763165        0.3263514661
 H         -2.1701018255        1.3307457785        0.1106742193
 H         -0.8983319539       -1.4551830205        0.1415960679
 H         -0.8301798874       -0.2765540542        1.4758245674
 H          1.7625996171       -0.4949240274        1.5401704453
 H          2.7937607990       -0.2814747248        0.1061563891
 H          1.6943052422       -1.6770534635        0.2015307279
  12
  -13.7356017600000       1.092990315296058E-002 !mtd10
 C         -2.1761953862        0.2676041294       -0.1299701694
 C         -0.9168873509       -0.3897052125        0.3989845644
 S          0.5650760881        0.3726731941       -0.3594539250
 C          1.8316194273       -0.6312484373        0.4640571176
 H         -2.2384532103        0.1508913504       -1.2092356781
 H         -3.0533201270       -0.1886525553        0.3245267957
 H         -2.1733352642        1.3302682081        0.1003988363
 H         -0.8964906333       -1.4531578568        0.1552374876
 H         -0.8315888068       -0.2632349711        1.4795173941
 H          2.7934720115       -0.2834257388        0.1030799362
 H          1.6929911471       -1.6774791150        0.2045847754
 H          1.7650604610       -0.4919049382        1.5397482761
  12
  -13.7353165000000       8.082019512790370E-003 !mtd7
 C         -1.9009201331       -0.5538799653        0.0637031348
 C         -0.9555490841        0.4792830641       -0.5190078370
 S          0.6474204086        0.5350681021        0.3550478783
 C          1.4421541297       -0.9792664522       -0.2786076079
 H         -1.4848227371       -1.5562317012       -0.0177931937
 H         -2.0834521398       -0.3431198698        1.1146709546
 H         -2.8501956232       -0.5313867964       -0.4684228857
 H         -1.3628830386        1.4834073621       -0.4071999147
 H         -0.7506800205        0.2957254491       -1.5740268035
 H          1.7570226225       -1.5845034165        0.5656747557
 H          2.3050928842       -0.6982723291       -0.8752760272
 H          0.7304996740       -1.5267067183       -0.8853143768
  12
  -13.7353149600000       8.068859617431409E-003 !mtd3
 C         -1.8905933952       -0.5112001200       -0.3030887766
 C         -0.9890630693        0.3579193561        0.5528639618
 S          0.6640319455        0.5954156256       -0.1871462364
 C          1.4306708169       -1.0261136266        0.1438232251
 H         -2.8699397891       -0.6029170636        0.1628556114
 H         -2.0114697223       -0.0680474822       -1.2885504978
 H         -1.4728832874       -1.5088182420       -0.4246448916
 H         -0.8475152617       -0.0591580513        1.5502340011
 H         -1.3951656298        1.3645267398        0.6446059838
 H          0.6893695639       -1.6875779888        0.5765793960
 H          2.2574410737       -0.8873576210        0.8343801596
 H          1.7955171942       -1.4353798602       -0.7930350862
  12
  -13.7346563200000       4.019038562837661E-003 !mtd6
 C         -2.1359566261       -0.0086090025        0.2214246164
 C         -0.8980333765       -0.1931318177       -0.6351107438
 S          0.5806391014        0.5277120978        0.1829578950
 C          1.7438285762       -0.8569098561        0.0184330022
 H         -2.3202790992        1.0486328394        0.3956883776
 H         -3.0027787177       -0.4376476098       -0.2779670838
 H         -2.0075290848       -0.4974509006        1.1844118339
 H         -1.0122816412        0.3038807674       -1.5988730737
 H         -0.6861464937       -1.2485851435       -0.7965680992
 H          1.9022451632       -1.0796729581       -1.0331492070
 H          1.3571344613       -1.7253441938        0.5448798979
 H          2.6749229403       -0.5338659631        0.4720974196
  12
  -13.7346547900000       4.012536850934484E-003 !mtd2
 C         -2.1267473668       -0.0905804184       -0.2995575624
 C         -0.9263364442        0.0184913101        0.6209293893
 S          0.5910511717        0.4355834179       -0.3268365985
 C          1.7408492345       -0.7932804975        0.3551723985
 H         -2.2940128138        0.8517197352       -0.8153900127
 H         -1.9637254085       -0.8653246510       -1.0452035446
 H         -3.0169632756       -0.3379133589        0.2758236375
 H         -0.7326833718       -0.9259259799        1.1265262408
 H         -1.0736307395        0.8026081885        1.3642467109
 H          2.6935072353       -0.6333503071       -0.1387792957
 H          1.3762005541       -1.7942912147        0.1413075833
 H          1.8484433818       -0.6403838490        1.4254389729
  12
  -13.7346536700000       4.007784096627441E-003 !mtd5
 C         -2.1377767828        0.0061244192        0.2224650265
 C         -0.8991525742       -0.2141724242       -0.6246534317
 S          0.5803156937        0.5294439364        0.1708250149
 C          1.7472801482       -0.8547179203        0.0315685718
 H         -3.0029607281       -0.4494271956       -0.2557640710
 H         -2.0068569774       -0.4365116165        1.2071604381
 H         -2.3262287641        1.0696023339        0.3470308778
 H         -1.0095473039        0.2475280787       -1.6062354088
 H         -0.6913580411       -1.2757455911       -0.7467338200
 H          1.9036490487       -1.0985539942       -1.0154862353
 H          1.3642325143       -1.7130166780        0.5766151623
 H          2.6785409392       -0.5199752197        0.4763129874
