  12
        -13.73701038
 C         -1.8785651961       -0.5293221797       -0.2992005230
 C         -0.9865639752        0.3620557721        0.5437835484
 S          0.6715215622        0.6032218081       -0.1805941712
 C          1.4000852056       -1.0290657009        0.1352979108
 H         -2.8743512085       -0.5754110876        0.1377631526
 H         -1.9582706006       -0.1337284384       -1.3090176592
 H         -1.4819786944       -1.5408167644       -0.3528044805
 H         -0.8496572275       -0.0393962202        1.5485602213
 H         -1.4019452844        1.3665654575        0.6163472718
 H          0.8985299716       -1.7847661857       -0.4619698028
 H          1.3231362451       -1.2596356784        1.1943194583
 H          2.4430205628       -0.9640008967       -0.1557170582
