  18
  -18.9867158500000       0.499834882282758      !md2
 C         -1.4140983706       -0.3085627533       -0.2415885401
 C         -0.4397832653       -1.3787824987        0.2416421759
 C          0.9742081999       -1.0702941477       -0.2417044502
 C          1.4140635545        0.3085072679        0.2416873548
 C          0.4398452099        1.3788126670       -0.2416352673
 C         -0.9742272492        1.0703075134        0.2415814346
 H         -2.4199236274       -0.5279790176        0.1235624525
 H         -1.4458553779       -0.3155695939       -1.3338402654
 H         -0.4495084289       -1.4094161311        1.3338823192
 H         -0.7526641220       -2.3596814078       -0.1230617538
 H          1.6672745590       -1.8316041293        0.1231995216
 H          0.9959151134       -1.0941897726       -1.3339483206
 H          1.4455518892        0.3152982790        1.3338805106
 H          2.4199470980        0.5279991841       -0.1232330241
 H          0.7527028504        2.3596642741        0.1233939254
 H          0.4497502700        1.4096796761       -1.3338499468
 H         -0.9960857029        1.0943217504        1.3337468986
 H         -1.6672007997        1.8316193112       -0.1235262481
  18
  -18.9867158300000       0.499824303941821      !mtd5
 C         -1.4140515271       -0.3084665778        0.2415027146
 C         -0.4398491167       -1.3789958034       -0.2414187710
 C          0.9743114311       -1.0703886106        0.2414510002
 C          1.4140207343        0.3086023979       -0.2416069453
 C          0.4397758983        1.3788334513        0.2417121555
 C         -0.9742089723        1.0704438316       -0.2416445018
 H         -1.4460872672       -0.3152179510        1.3337568258
 H         -2.4197600782       -0.5280048657       -0.1238127490
 H         -0.7526743972       -2.3596693421        0.1240416296
 H         -0.4498855700       -1.4102473404       -1.3336571149
 H          0.9967579223       -1.0947155268        1.3336762199
 H          1.6671239692       -1.8316437782       -0.1242215050
 H          2.4198390697        0.5280357805        0.1234605908
 H          1.4457098809        0.3156973103       -1.3338114083
 H          0.4494156667        1.4092918502        1.3339738017
 H          0.7526799039        2.3597988378       -0.1228614663
 H         -1.6672191825        1.8317920279        0.1233623367
 H         -0.9958814187        1.0945411146       -1.3338553483
  18
  -18.9781329400000       5.680600264468820E-005 !md4
 C         -1.3335027318       -0.3238422751       -0.3845172310
 C         -0.4475235494       -1.2972912348        0.3845121194
 C          1.0201293352       -1.1207541558       -0.0247310083
 C          1.3247704821        0.3333887889       -0.4058718522
 C          0.4562320488        1.2877546705        0.4057990567
 C         -1.0200972591        1.1207436832        0.0247987782
 H         -2.3864767651       -0.5414802284       -0.1964075686
 H         -1.1579408023       -0.4579416861       -1.4535919673
 H         -0.5646744335       -1.1099756021        1.4535884690
 H         -0.7629945792       -2.3251897370        0.1963157445
 H          1.6623837368       -1.4288943351        0.8027003684
 H          1.2485900436       -1.7689731913       -0.8730932764
 H          2.3816954507        0.5467107505       -0.2358456921
 H          1.1257042110        0.4931662328       -1.4672715660
 H          0.5967802224        1.0746965521        1.4672002543
 H          0.7677240602        2.3199995991        0.2356680541
 H         -1.6439131632        1.4087280268        0.8733143095
 H         -1.2669771987        1.7891598534       -0.8024563249
  18
  -18.9781328900000       5.680299713342942E-005 !md3
 C         -1.4805794107       -0.3231505383       -0.0248252708
 C         -0.3861897953       -1.3167353065        0.3846190822
 C          0.8996429535       -1.0362387581       -0.3846736614
 C          1.4805426655        0.3229026346        0.0249207871
 C          0.3737295319        1.3142286726        0.4056515216
 C         -0.8871424598        1.0389853027       -0.4057175247
 H         -2.1831911763       -0.2030201412        0.8021564543
 H         -2.0416818800       -0.7194263648       -0.8734581737
 H         -0.1820280745       -1.2314278845        1.4536244746
 H         -0.7241464312       -2.3375107264        0.1968822565
 H          1.6321050819       -1.8234844432       -0.1968685923
 H          0.6785847409       -1.0437344349       -1.4536678820
 H          2.1554998006        0.1963157038        0.8738058804
 H          2.0693469129        0.7249114266       -0.8019816072
 H          0.1357482826        1.2221872917        1.4670785450
 H          0.7176276706        2.3360714249        0.2352185482
 H         -1.6253324442        1.8248292457       -0.2353078924
 H         -0.6325740142        1.0543841549       -1.4671833037
  18
  -18.9781328800000       5.680239605017456E-005 !mtd10
 C         -1.3470790393       -0.2610481188       -0.3848195053
 C         -0.4607253350       -1.4436965083        0.0252528428
 C          0.9512389783       -0.9806810239        0.4055175444
 C          1.3432366854        0.2488713627       -0.4060202830
 C          0.4605808691        1.4437386165       -0.0244593889
 C         -0.9472949726        0.9928548030        0.3844454078
 H         -2.3950880811       -0.5018008539       -0.1971933637
 H         -1.2427986673       -0.0661122301       -1.4538495580
 H         -0.9078677773       -1.9644638193        0.8743547334
 H         -0.4073241805       -2.1549814349       -0.8013649251
 H          0.9909388099       -0.7287485908        1.4670039353
 H          1.6642965316       -1.7892729215        0.2346577532
 H          2.3929775847        0.4951002979       -0.2358101306
 H          1.2289080797        0.0208317041       -1.4674842500
 H          0.9160162355        1.9909327594        0.8031965033
 H          0.3985356610        2.1286491877       -0.8723332417
 H         -0.9758039708        0.7734926862        1.4534494296
 H         -1.6622800157        1.7959068944        0.1963667676
  18
  -18.9781328700000       5.680179497328028E-005 !mtd1
 C         -1.3433409293       -0.2486726773        0.4056786066
 C         -0.4605464489       -1.4438056832        0.0250796229
 C          0.9471011553       -0.9929005808       -0.3846240292
 C          1.3475105673        0.2610972997        0.3842317241
 C          0.4603231253        1.4437533763       -0.0242074929
 C         -0.9510689858        0.9805228579       -0.4062065884
 H         -1.2291598444       -0.0201616018        1.4670042070
 H         -2.3929654916       -0.4950565886        0.2354877121
 H         -0.3979771618       -2.1277379939        0.8738577420
 H         -0.9161807795       -1.9921054734       -0.8019277404
 H          1.6621028256       -1.7959810716       -0.1966496940
 H          0.9751926699       -0.7739492637       -1.4537323359
 H          1.2444753278        0.0659452230        1.4533862602
 H          2.3953076109        0.5020159354        0.1955083963
 H          0.4056162829        2.1532023785        0.8038860856
 H          0.9075469505        1.9667839622       -0.8718269736
 H         -1.6644720057        1.7891675356       -0.2368675960
 H         -0.9892299808        0.7279413980       -1.4675521849
  18
  -18.9781328500000       5.680059283878676E-005 !mtd3
 C         -1.4806584414       -0.3230988063       -0.0250519040
 C         -0.3735807094       -1.3140168754       -0.4056926205
 C          0.8869757757       -1.0387410601        0.4062057845
 C          1.4807784507        0.3227682440        0.0241472826
 C          0.3863611457        1.3169108111       -0.3840992929
 C         -0.8998649630        1.0361256682        0.3844952024
 H         -2.0689267336       -0.7251092087        0.8021960027
 H         -2.1560125805       -0.1968417455       -0.8735598456
 H         -0.7173882815       -2.3359389911       -0.2354159305
 H         -0.1353694919       -1.2217777155       -1.4670805858
 H          0.6318600199       -1.0530745710        1.4675518973
 H          1.6251421627       -1.8248145165        0.2368207414
 H          2.0435748742        0.7188322792        0.8718003121
 H          2.1819455465        0.2015861262       -0.8039880695
 H          0.7244468438        2.3373822602       -0.1947339534
 H          0.1824901017        1.2332641945       -1.4533287086
 H         -0.6795509815        1.0439225120        1.4536776435
 H         -1.6323456429        1.8231892741        0.1960074419
  18
  -18.9781328400000       5.679999178097388E-005 !mtd10
 C         -1.3248147435       -0.3335683602        0.4056219226
 C         -0.4561780735       -1.2874093784       -0.4063353537
 C          1.0198879922       -1.1208173917       -0.0241471101
 C          1.3337036483        0.3239692885        0.3842764538
 C          0.4473777708        1.2970637881       -0.3847474843
 C         -1.0200076446        1.1207100812        0.0252600058
 H         -1.1257996587       -0.4938573865        1.4669238673
 H         -2.3816773997       -0.5466016348        0.2354834542
 H         -0.7679526085       -2.3197798420       -0.2373284315
 H         -0.5959727829       -1.0733602514       -1.4676524662
 H          1.2653815673       -1.7885916212        0.8040680320
 H          1.6443929393       -1.4101968178       -0.8717297966
 H          1.1586461036        0.4586770380        1.4534111644
 H          2.3865792848        0.5416142319        0.1955636839
 H          0.7629061495        2.3249631305       -0.1967756822
 H          0.5643267123        1.1096294864       -1.4538499055
 H         -1.2478775998        1.7684003809        0.8741859800
 H         -1.6625826848        1.4297226355       -0.8014470588
