  18
        -18.98671585
 C         -1.4140983706       -0.3085627533       -0.2415885401
 C         -0.4397832653       -1.3787824987        0.2416421759
 C          0.9742081999       -1.0702941477       -0.2417044502
 C          1.4140635545        0.3085072679        0.2416873548
 C          0.4398452099        1.3788126670       -0.2416352673
 C         -0.9742272492        1.0703075134        0.2415814346
 H         -2.4199236274       -0.5279790176        0.1235624525
 H         -1.4458553779       -0.3155695939       -1.3338402654
 H         -0.4495084289       -1.4094161311        1.3338823192
 H         -0.7526641220       -2.3596814078       -0.1230617538
 H          1.6672745590       -1.8316041293        0.1231995216
 H          0.9959151134       -1.0941897726       -1.3339483206
 H          1.4455518892        0.3152982790        1.3338805106
 H          2.4199470980        0.5279991841       -0.1232330241
 H          0.7527028504        2.3596642741        0.1233939254
 H          0.4497502700        1.4096796761       -1.3338499468
 H         -0.9960857029        1.0943217504        1.3337468986
 H         -1.6672007997        1.8316193112       -0.1235262481
  18
        -18.97813294
 C         -1.3335027318       -0.3238422751       -0.3845172310
 C         -0.4475235494       -1.2972912348        0.3845121194
 C          1.0201293352       -1.1207541558       -0.0247310083
 C          1.3247704821        0.3333887889       -0.4058718522
 C          0.4562320488        1.2877546705        0.4057990567
 C         -1.0200972591        1.1207436832        0.0247987782
 H         -2.3864767651       -0.5414802284       -0.1964075686
 H         -1.1579408023       -0.4579416861       -1.4535919673
 H         -0.5646744335       -1.1099756021        1.4535884690
 H         -0.7629945792       -2.3251897370        0.1963157445
 H          1.6623837368       -1.4288943351        0.8027003684
 H          1.2485900436       -1.7689731913       -0.8730932764
 H          2.3816954507        0.5467107505       -0.2358456921
 H          1.1257042110        0.4931662328       -1.4672715660
 H          0.5967802224        1.0746965521        1.4672002543
 H          0.7677240602        2.3199995991        0.2356680541
 H         -1.6439131632        1.4087280268        0.8733143095
 H         -1.2669771987        1.7891598534       -0.8024563249
