! r2scan-3c def2/J RI DEFGRID2 scfconv6 printgap
%output
    printlevel normal
end
%cpcm
    smd true
    smdsolvent "water"
end
* xyz 0 1
C 1.8259602734 -0.5352662401 1.2974452956
C 1.4897139111 -0.0264100881 -0.1062784105
C 1.7518151075 1.4765168141 -0.2288149889
C 0.0531996827 -0.3502406862 -0.463550411
O -0.2064776264 -1.0738443505 -1.4058497815
C -1.048916625 0.2537371083 0.3864430177
C -1.8658473547 -0.8816754331 1.0095974166
C -1.9357504452 1.1251362609 -0.5075297628
H 1.2474043361 -0.0132237938 2.0541005605
H 2.8814524944 -0.3709699721 1.4971179504
H 1.6222863576 -1.6008612034 1.3738622352
H 2.1178537029 -0.5543623208 -0.832700148
H 2.8057764302 1.6741483298 -0.0526023916
H 1.4975299542 1.826068788 -1.2268051633
H 1.1705080557 2.0375531164 0.4972215522
H -0.622758186 0.8686046812 1.1800679749
H -1.2502387548 -1.4723117212 1.6838686591
H -2.704948501 -0.4742268395 1.5668136044
H -2.2453725484 -1.535047147 0.2270458624
H -2.317795761 0.5333818351 -1.3364912112
H -2.7739290712 1.5132909415 0.0646545449
H -1.3697750407 1.9608640231 -0.9121013655
*
