  19
        -20.24790442
 C         -3.2036212227       -0.2339746740       -0.0000292993
 C         -1.8963700110        0.5487988046        0.0000863378
 C         -0.6810353676       -0.3757464202       -0.0000190223
 C          0.6326751293        0.4000965909       -0.0002246436
 C          1.8525542967       -0.5314925711        0.0000880481
 N          3.1372399964        0.1452017861        0.0001042934
 H         -4.0554457862        0.4420644156       -0.0002405306
 H         -3.2681727259       -0.8680915493       -0.8816031505
 H         -3.2684334180       -0.8677933940        0.8816431326
 H         -1.8596057859        1.1928275250        0.8821706308
 H         -1.8596105002        1.1934818322       -0.8813558115
 H         -0.7180580571       -1.0205543060       -0.8813148710
 H         -0.7178202455       -1.0201712484        0.8815537806
 H          0.6741586854        1.0452181540        0.8826955799
 H          0.6742235285        1.0446397077       -0.8835375699
 H          1.8207392418       -1.1747129605       -0.8839372564
 H          1.8204370368       -1.1741643878        0.8845184485
 H          3.2171983680        0.7413992122        0.8178202758
 H          3.2179771325        0.7398294970       -0.8186872596
