! wb97x-v def2-tzvp def2/J RIJCOSX DEFGRID2 scfconv7 GCP(DFT/TZ) printgap
%output
    printlevel normal
end
* xyz 0 1
C -2.9609133125083194 -0.35778447092229626 -0.13673477139101253
C -1.7495827588244204 0.4954528651205834 0.22700542860468764
C -0.43479078317959996 -0.21100366203401913 -0.09163016639727047
C 0.7848099502123208 0.6510986332783639 0.27733710318708077
C 2.0455783230796984 -0.008547920583225531 -0.016981063425736145
C 3.0732127439373613 -0.5890567823522063 -0.27278007518304465
H -2.953986847394345 -1.3042922456672172 0.41549138640664995
H -2.96544681051151 -0.5959900799969038 -1.206311993979332
H -3.897782519242441 0.15853451414700553 0.09547231951364385
H -1.789089948337299 1.4482398210323282 -0.31665809864750905
H -1.7769844690117658 0.7432057614626139 1.2960325897467018
H -0.3815325966753323 -1.1600867099531895 0.4553105598170984
H -0.3924722208206521 -0.45312057344605355 -1.1603957279311403
H 0.7511397546428624 0.8987870266726614 1.3459605131964407
H 0.7416678026521032 1.6034031619621318 -0.2664365693439243
H 3.986109990872734 -1.0936235451419227 -0.4976740912834556
*
