  17
        -23.94320172
 C         -2.2088433262        1.1599483151       -0.1052398033
 C         -1.1299437225        0.1483491059        0.2691764674
 C         -1.7375789743       -1.2237107084        0.5472088768
 C         -0.0975086672        0.0568494754       -0.8590715078
 O          0.9982066958       -0.7949655560       -0.5069964277
 C          1.9927919371       -0.2474751732        0.1628197428
 O          2.0962324942        0.8951798581        0.4993178641
 H         -2.9446580818        1.2328573508        0.6912535373
 H         -2.7177002723        0.8534809730       -1.0167464095
 H         -1.7761078776        2.1444649249       -0.2643363425
 H         -0.6107534658        0.4988546065        1.1675597239
 H         -2.2982788392       -1.5707987277       -0.3182790071
 H         -2.4122051118       -1.1736997292        1.3982055066
 H         -0.9574142209       -1.9488667353        0.7656269092
 H         -0.5384874658       -0.3913226604       -1.7518354454
 H          0.2925083694        1.0527657600       -1.0925279290
 H          2.7504911238       -1.0248857314        0.3654819435
