  17
        -23.94320172
 C         -2.2088433262        1.1599483151       -0.1052398033
 C         -1.1299437225        0.1483491059        0.2691764674
 C         -1.7375789743       -1.2237107084        0.5472088768
 C         -0.0975086672        0.0568494754       -0.8590715078
 O          0.9982066958       -0.7949655560       -0.5069964277
 C          1.9927919371       -0.2474751732        0.1628197428
 O          2.0962324942        0.8951798581        0.4993178641
 H         -2.9446580818        1.2328573508        0.6912535373
 H         -2.7177002723        0.8534809730       -1.0167464095
 H         -1.7761078776        2.1444649249       -0.2643363425
 H         -0.6107534658        0.4988546065        1.1675597239
 H         -2.2982788392       -1.5707987277       -0.3182790071
 H         -2.4122051118       -1.1736997292        1.3982055066
 H         -0.9574142209       -1.9488667353        0.7656269092
 H         -0.5384874658       -0.3913226604       -1.7518354454
 H          0.2925083694        1.0527657600       -1.0925279290
 H          2.7504911238       -1.0248857314        0.3654819435
  17
        -23.94279930
 C         -2.5185507779        0.7353023829       -0.5119441849
 C         -1.3589164321        0.1879772223        0.3156825855
 C         -1.2497780225       -1.3265546543        0.1620808520
 C         -0.0590188801        0.8717400722       -0.1196511310
 O          1.0206583289        0.5281328404        0.7555284823
 C          1.9761125572       -0.2477720216        0.2840342318
 O          2.0739199376       -0.6957564993       -0.8201032251
 H         -2.3620053580        0.5254291002       -1.5675696757
 H         -2.6130535667        1.8110083332       -0.3839644183
 H         -3.4508553748        0.2694995731       -0.2039093780
 H         -1.5257508463        0.4268329951        1.3714362103
 H         -2.1744693812       -1.8049325731        0.4755057935
 H         -0.4392663851       -1.7196441260        0.7719002877
 H         -1.0566503902       -1.5899592642       -0.8756177367
 H          0.2058956113        0.5772050803       -1.1401360932
 H         -0.1627549037        1.9588123798       -0.0641556485
 H          2.7105058084       -0.4233612051        1.0899670261
  17
        -23.94234273
 C         -2.2081621155       -0.1150722464       -0.9743727250
 C         -1.4032495614        0.4329636032        0.2013086571
 C         -1.2012472618       -0.6370688747        1.2714145784
 C         -0.0553415557        0.9832508464       -0.2805521472
 O          0.7458184196       -0.0434558296       -0.8751484338
 C          1.7961658357       -0.4703733706       -0.2043209096
 O          2.1928850589       -0.0826809837        0.8549485349
 H         -2.4012680918        0.6665171579       -1.7054464282
 H         -3.1611462401       -0.5079549022       -0.6291743532
 H         -1.6583242402       -0.9157027127       -1.4627324831
 H         -1.9431464186        1.2777019877        0.6429660885
 H         -0.5916946693       -0.2560394026        2.0875051294
 H         -0.7045906720       -1.5085746122        0.8496616098
 H         -2.1606797159       -0.9531891811        1.6732584158
 H         -0.2081681738        1.7373680791       -1.0571359267
 H          0.5007532321        1.4194513472        0.5553098845
 H          2.2859132196       -1.2655772288       -0.7941677218
  17
        -23.94208753
 C         -2.4755119402        1.0533441042       -0.1335976715
 C         -1.4631686580        0.0111011289        0.3330150858
 C         -1.7802282556       -1.3612785607       -0.2547659824
 C         -0.0547860108        0.4469241778       -0.0640426245
 O          0.8976878034       -0.4330934333        0.5468634578
 C          2.1576679748       -0.2657311979        0.2021687615
 O          2.5889415391        0.5419807827       -0.5670467257
 H         -3.4802417840        0.7526499646        0.1512887037
 H         -2.4415098192        1.1567568330       -1.2158317690
 H         -2.2676396695        2.0234022842        0.3113716871
 H         -1.4938305025       -0.0578920440        1.4250179957
 H         -1.0368545204       -2.0876311810        0.0628282690
 H         -1.7818969974       -1.3168599078       -1.3419037418
 H         -2.7585710228       -1.6985756396        0.0779527118
 H          0.0782364537        0.4122624440       -1.1509765080
 H          0.1513369742        1.4693181907        0.2715255645
 H          2.7759073614       -1.0038387649        0.7426677534
  17
        -23.94206849
 C         -2.4585783624        1.0704848499       -0.1172048427
 C         -1.4560923697        0.0120222887        0.3339402151
 C         -1.8305909464       -1.3637771178       -0.2103383646
 C         -0.0535412596        0.4015665874       -0.1265940093
 O          0.8982264347       -0.4953846282        0.4603058431
 C          2.1668127904       -0.2585524876        0.1977996265
 O          2.6054988819        0.6243032725       -0.4790395364
 H         -2.2094833875        2.0437459963        0.2985867286
 H         -3.4591136828        0.8020404092        0.2113168914
 H         -2.4629442232        1.1505848965       -1.2019439250
 H         -1.4466611386       -0.0325956676        1.4276531982
 H         -1.8744969142       -1.3422089253       -1.2972482138
 H         -2.8029853716       -1.6686759161        0.1679629300
 H         -1.0929792451       -2.1015740798        0.0936624495
 H          0.0328072037        0.3429983641       -1.2172903486
 H          0.1952188072        1.4236296899        0.1795506066
 H          2.7844248694       -1.0168232164        0.7103488723
  17
        -23.94156439
 C         -2.0702076387        0.6411565168       -0.9665855721
 C         -1.5407435874        0.1810538029        0.3892425927
 C         -1.7899927647       -1.3109568045        0.5950610601
 C         -0.0508140236        0.4968511046        0.5162317917
 O          0.6758261596       -0.2078768851       -0.4986457121
 C          1.9883894073       -0.1687496523       -0.4141535324
 O          2.6375716276        0.3931419634        0.4184697037
 H         -1.5522852818        0.1167814945       -1.7652283094
 H         -1.9169819851        1.7099946955       -1.0963029879
 H         -3.1341913252        0.4334436634       -1.0465448606
 H         -2.0507791461        0.7408907142        1.1808416219
 H         -1.4394172894       -1.6279162885        1.5746316657
 H         -1.2647723036       -1.8842957707       -0.1643424720
 H         -2.8522400770       -1.5296035872        0.5221452284
 H          0.1341430308        1.5698566048        0.3939294596
 H          0.3355417086        0.1944996862        1.4957817268
 H          2.4165891624       -0.7501643673       -1.2497933136
