! r2scan-3c def2/J RI DEFGRID2 scfconv6 printgap
%output
    printlevel normal
end
* xyz 0 1
C -2.075653584 0.4103138365 0.689412697
C -1.5260975871 0.1786588781 -0.7131251015
C -0.2528516327 -0.6677405322 -0.6989500197
C 0.9384167027 -0.0545975231 -0.006341394
C 1.164736468 1.2464170976 0.0802269849
C 1.8978155248 -1.0577452135 0.5629255034
H -2.981096431 1.0111151524 0.6504215275
H -1.3427291987 0.9271723466 1.3040302887
H -2.3132620142 -0.5387714157 1.1649403866
H -2.2780718735 -0.3414140729 -1.3110447968
H -1.3322631041 1.136927011 -1.1967096738
H -0.4762675377 -1.6243126618 -0.2197793925
H 0.0372003364 -0.8868790438 -1.7318813826
H 2.0443030623 1.6310535591 0.5693819055
H 0.4956331661 1.9850559815 -0.3244647251
H 1.4224786343 -1.6125694382 1.3711558916
H 2.1903927094 -1.7735778454 -0.2039091485
H 2.7894608749 -0.5728797335 0.9509371281
*
