! pbe def2-sv(p) def2/J RI DEFGRID1 loosescf d4 GCP(DFT/SV(P)) printgap
%output
    printlevel normal
end
* xyz 0 1
C -1.1975099495 0.14833768 -0.4952526472
C -0.0452641074 0.4607819167 0.4851788893
C 0.9848500117 -0.6801738981 0.5825965253
O 1.7673670827 -0.7733032991 -0.5876201358
O 0.6040588183 1.6559484104 0.1131610809
O -2.1739634486 -0.7065324733 0.0498672209
H -0.8071707901 -0.2559262603 -1.4382889048
H -1.7118435592 1.0868982103 -0.7149617347
H -0.4856777414 0.6363750037 1.4733280608
H 0.4907484407 -1.6291613868 0.8115885022
H 1.6879908381 -0.4500599074 1.3862248803
H 1.2543184421 -1.1836748318 -1.2969908937
H 1.3051731528 1.427041536 -0.5197034378
H -1.7944790141 -1.5803003255 0.2162559389
*
