! r2scan-3c def2/J RI DEFGRID2 scfconv6 printgap
%output
    printlevel normal
end
* xyz 0 1
C 2.0519330419 -1.0167187741 -0.1446396778
O 0.8297460238 -0.6336705945 -0.7938640151
S -0.073765374 0.4564721029 -0.1062661741
O -0.2849299786 1.5314066898 -1.0231492341
O 0.4512939356 0.773134706 1.189994286
O -1.4475243394 -0.2771025651 0.0165724354
C -1.4702374544 -1.3697961008 0.9477137368
H 2.5977189889 -1.6021600784 -0.8805539641
H 1.8292381063 -1.6081418576 0.7423207376
H 2.6082628046 -0.1266805531 0.1413287749
H -0.9261782425 -1.0730096122 1.8438116997
H -1.0103511252 -2.2420939747 0.4843051857
H -2.5181419524 -1.5550862513 1.1696610347
*
