  14
        -21.74897399
 C          0.2979109741       -0.5957616761        0.3736188549
 C         -0.2978734344        0.5960176433       -0.3737340488
 C         -1.6422795394        1.0152516019        0.1930167283
 Cl        -2.8630312023       -0.2713719467       -0.0330905204
 C          1.6420826797       -1.0152094398       -0.1934588110
 Cl         2.8630985047        0.2712432200        0.0333171660
 H         -0.3817897311       -1.4472914776        0.2971258968
 H          0.4113361770       -0.3452551430        1.4301766905
 H         -0.4110389121        0.3455536790       -1.4303365263
 H          0.3816822998        1.4476581280       -0.2970094424
 H         -1.5821498168        1.2018648683        1.2650829496
 H         -2.0276975974        1.8985280708       -0.3151428242
 H          2.0273962520       -1.8987752569        0.3143551890
 H          1.5817925531       -1.2013076589       -1.2655832344
  14
        -21.74846746
 C          0.3482866988       -0.6335412464        0.9266358565
 C         -0.3330926810        0.7338439151        0.8552264729
 C         -1.2987688201        0.8810131519       -0.3087244649
 Cl        -2.6231896866       -0.3166825775       -0.2065464299
 C          1.2946302054       -0.9118533398       -0.2291455739
 Cl         2.6188022020        0.2892448627       -0.2849622807
 H         -0.4134229912       -1.4162679359        0.9301982408
 H          0.9045947895       -0.6962162975        1.8633298370
 H          0.4278674578        1.5112202000        0.7579292928
 H         -0.8737642282        0.9021038411        1.7880640216
 H         -1.7693405918        1.8637756006       -0.2985791659
 H         -0.8090263618        0.7244737929       -1.2685359499
 H          1.7667692818       -1.8873091868       -0.1158694959
 H          0.7889072702       -0.8644296377       -1.1921386110
  14
        -21.74814307
 C          0.2611533697       -0.8193141093       -0.6946203597
 C         -0.3170520988        0.5819026716       -0.8846691146
 C         -1.8356017027        0.5875449615       -0.8533961935
 Cl        -2.4496945006        0.0856429501        0.7478341972
 C          1.7781911155       -0.8315009755       -0.7685002382
 Cl         2.4962797305        0.1122618128        0.5682397377
 H         -0.1183405456       -1.4826582572       -1.4762888046
 H         -0.0601110736       -1.2132325564        0.2707098015
 H          0.0004456291        0.9824499387       -1.8510113997
 H          0.0663140871        1.2385052705       -0.1023273196
 H         -2.2292500460        1.5869924001       -1.0360458957
 H         -2.2515141358       -0.1116802742       -1.5791462697
 H          2.1686187192       -1.8446440521       -0.6762692353
 H          2.1354873706       -0.3806685685       -1.6946008344
  14
        -21.74755531
 C          0.6338515495       -0.9213025097        0.8961977232
 C         -0.4051923494       -0.3074916218       -0.0425217300
 C         -1.7111668828       -0.0468144375        0.6888114775
 Cl        -2.9239795309        0.6393582446       -0.4266182860
 C          1.9588266402       -1.1719408302        0.1953914772
 Cl         2.7277739309        0.3664898111       -0.2878169422
 H          0.2672575239       -1.8782317343        1.2759480295
 H          0.7957582655       -0.2590173126        1.7485943761
 H         -0.5877854398       -0.9840414801       -0.8798010418
 H         -0.0209829906        0.6310859062       -0.4447566217
 H         -2.1362796022       -0.9683637511        1.0873428165
 H         -1.5794276337        0.6752830564        1.4945627511
 H          2.6645205437       -1.6768401198        0.8544713567
 H          1.8222693666       -1.7536014099       -0.7160738388
  14
        -21.74725720
 C          0.6941414101        0.2565670611        0.1935988309
 C         -0.6943352981       -0.2575292429       -0.1920252150
 C         -1.7757360526        0.6925779868        0.2955152009
 Cl        -3.3902681999        0.0824526214       -0.1596855054
 C          1.7755460605       -0.6937203344       -0.2935862802
 Cl         3.3904178041       -0.0815988042        0.1582539256
 H          0.7625095055        0.3556659747        1.2784701522
 H          0.8567815954        1.2431528550       -0.2442678742
 H         -0.8568532187       -1.2442551696        0.2452517573
 H         -0.7628035426       -0.3560462899       -1.2768773137
 H         -1.7666608307        0.7825584959        1.3816306642
 H         -1.6721094933        1.6791781108       -0.1558232384
 H          1.6732812717       -1.6794896090        0.1597210674
 H          1.7651670102       -0.7857181133       -1.3794884561
  14
        -21.74701069
 C          0.6553087605        1.0303973145        0.5204645384
 C         -0.7699030718        1.2290696148        1.0425497004
 C         -1.8541358346        1.0861881195       -0.0157428203
 Cl        -2.2470613935       -0.6249006230       -0.3544587780
 C          0.9432013095       -0.3999838509        0.0922932577
 Cl         2.6751207421       -0.5739220719       -0.3077355616
 H          1.3527381948        1.3020602582        1.3156741480
 H          0.8338507097        1.7024897876       -0.3213481070
 H         -0.8417990182        2.2420878272        1.4457040519
 H         -0.9657068706        0.5315780433        1.8587416123
 H         -2.7852830331        1.5411264208        0.3214157543
 H         -1.5498237957        1.5335738989       -0.9616306456
 H          0.7314654013       -1.1051107170        0.8959290713
 H          0.3886012432       -0.6822194059       -0.8001803023
  14
        -21.74686559
 C          0.7074513427       -1.1115451034        1.0353997630
 C         -0.4125341371       -0.0802657616        0.8802809104
 C         -1.3562871120       -0.4107529292       -0.2655056302
 Cl        -2.7481417575        0.7082442039       -0.2571437830
 C          1.6806589454       -1.1503747006       -0.1328602166
 Cl         2.4933140892        0.4264369792       -0.3474340169
 H          0.2760567626       -2.1099498189        1.1425347929
 H          1.2619449872       -0.8837377953        1.9472934652
 H          0.0224911064        0.9069504780        0.7186971633
 H         -0.9849238877       -0.0475423811        1.8090255486
 H         -0.8767824769       -0.2947036889       -1.2362351829
 H         -1.7626907291       -1.4181582887       -0.1689937445
 H          2.4681923789       -1.8825714663        0.0447743847
 H          1.1793259845       -1.3764560266       -1.0726253900
  14
        -21.74673751
 C          0.3567495700       -1.0728293620        0.9378246906
 C         -0.4716841261        0.1178472292        1.4319762164
 C         -1.0754769797        0.9470199488        0.3090018068
 Cl        -2.2947458836       -0.0031997294       -0.5876197398
 C          1.8150501448       -0.7480520670        0.6556547480
 Cl         2.0306239655        0.3054379622       -0.7718761190
 H         -0.1102837588       -1.4913592944        0.0452113077
 H          0.3564594886       -1.8479881077        1.7078520678
 H          0.1534609579        0.7756793312        2.0402761349
 H         -1.2827578020       -0.2504848898        2.0628396271
 H         -1.5941845555        1.8198272571        0.7050781747
 H         -0.3244204038        1.2565869135       -0.4148211105
 H          2.2733099259       -0.2256712788        1.4959088979
 H          2.3752065360       -1.6585414144        0.4418280409
  14
        -21.74663322
 C          0.7878343120        0.5864356541       -0.5567765705
 C         -0.6945767278        0.3176557151       -0.8312618940
 C         -1.5184253872        0.2452820785        0.4450859286
 Cl        -3.2481549281        0.0434072537        0.0474579097
 C          1.4819021293       -0.5981315060        0.0975383890
 Cl         3.2258886288       -0.2597601326        0.2843284948
 H          0.8917152360        1.4658457288        0.0813443430
 H          1.2846014504        0.8011901260       -1.5044981171
 H         -0.8039655856       -0.6152671087       -1.3871618238
 H         -1.0859284988        1.1245919882       -1.4531683449
 H         -1.2429660308       -0.6083559171        1.0624411053
 H         -1.4336436418        1.1646801120        1.0244003143
 H          1.0982444191       -0.7965824848        1.0970905924
 H          1.3990674796       -1.4949360072       -0.5163941753
  14
        -21.74558202
 C          0.3281036836       -0.2592231155       -1.0579972146
 C         -0.3086257366        1.0038107737       -0.4542712385
 C         -1.8269953942        0.9606301091       -0.4694825887
 Cl        -2.4328023210       -0.3920624029        0.5317240464
 C          1.2682071590       -0.9565597139       -0.0903015979
 Cl         2.6600646757        0.0915327483        0.3103457833
 H          0.8717005555       -0.0111655921       -1.9701772417
 H         -0.4531948006       -0.9763086972       -1.3178990547
 H          0.0033080537        1.8887405475       -1.0113603749
 H          0.0316100415        1.1304328355        0.5742739685
 H         -2.2528078472        1.8721320752       -0.0508538806
 H         -2.2136415184        0.8012122563       -1.4759911169
 H          0.7663575767       -1.1880153182        0.8488484726
 H          1.6795716116       -1.8675133121       -0.5243905454
  14
        -21.74456427
 C          0.8237485456        0.1333169668       -1.6554098626
 C         -0.6766353194        0.4370580711       -1.6697954581
 C         -1.2226578508        1.0191955144       -0.3719281840
 Cl        -1.7007265717       -0.2629031996        0.7772354654
 C          1.2654706508       -0.8552651157       -0.5834208652
 Cl         1.6234843876       -0.0356946972        0.9634647428
 H          1.3843865189        1.0622714589       -1.5359137494
 H          1.0867442134       -0.2880414823       -2.6286835754
 H         -1.2316785246       -0.4706100530       -1.9140930302
 H         -0.8616652761        1.1618124769       -2.4664089186
 H         -0.4827766540        1.6377613098        0.1342289151
 H         -2.1260179798        1.5999059798       -0.5571757276
 H          0.4944944676       -1.5965306689       -0.3775837366
 H          2.1901948040       -1.3539659501       -0.8729493495
