  14
        -21.74897399
 C          0.2979109741       -0.5957616761        0.3736188549
 C         -0.2978734344        0.5960176433       -0.3737340488
 C         -1.6422795394        1.0152516019        0.1930167283
 Cl        -2.8630312023       -0.2713719467       -0.0330905204
 C          1.6420826797       -1.0152094398       -0.1934588110
 Cl         2.8630985047        0.2712432200        0.0333171660
 H         -0.3817897311       -1.4472914776        0.2971258968
 H          0.4113361770       -0.3452551430        1.4301766905
 H         -0.4110389121        0.3455536790       -1.4303365263
 H          0.3816822998        1.4476581280       -0.2970094424
 H         -1.5821498168        1.2018648683        1.2650829496
 H         -2.0276975974        1.8985280708       -0.3151428242
 H          2.0273962520       -1.8987752569        0.3143551890
 H          1.5817925531       -1.2013076589       -1.2655832344
