  14
  -21.7489739900000       0.152107331299391      !mtd1
 C          0.2979109741       -0.5957616761        0.3736188549
 C         -0.2978734344        0.5960176433       -0.3737340488
 C         -1.6422795394        1.0152516019        0.1930167283
 Cl        -2.8630312023       -0.2713719467       -0.0330905204
 C          1.6420826797       -1.0152094398       -0.1934588110
 Cl         2.8630985047        0.2712432200        0.0333171660
 H         -0.3817897311       -1.4472914776        0.2971258968
 H          0.4113361770       -0.3452551430        1.4301766905
 H         -0.4110389121        0.3455536790       -1.4303365263
 H          0.3816822998        1.4476581280       -0.2970094424
 H         -1.5821498168        1.2018648683        1.2650829496
 H         -2.0276975974        1.8985280708       -0.3151428242
 H          2.0273962520       -1.8987752569        0.3143551890
 H          1.5817925531       -1.2013076589       -1.2655832344
  14
  -21.7489739600000       0.152102502600409      !mtd1
 C          0.2884747532       -0.6140982395       -0.3500274119
 C         -0.2886624424        0.6130554866        0.3534524997
 C         -1.6467577936        1.0060146278       -0.1992932483
 Cl        -2.8609537120       -0.2676151596        0.1175208949
 C          1.6474574105       -1.0056662351        0.2014582561
 Cl         2.8607332857        0.2678750002       -0.1198008574
 H          0.3740160642       -0.4155754832       -1.4201761186
 H         -0.3881707578       -1.4606546310       -0.2142290079
 H          0.3887173911        1.4592148507        0.2187387144
 H         -0.3755040193        0.4140756180        1.4234046717
 H         -2.0197092949        1.9128057518        0.2757464829
 H         -1.6128218176        1.1417580800       -1.2801244667
 H          1.6152035284       -1.1392057981        1.2826281369
 H          2.0199218562       -1.9132837234       -0.2724068345
  14
  -21.7484674600000       8.899489117617460E-002 !md3
 C          0.3482866988       -0.6335412464        0.9266358565
 C         -0.3330926810        0.7338439151        0.8552264729
 C         -1.2987688201        0.8810131519       -0.3087244649
 Cl        -2.6231896866       -0.3166825775       -0.2065464299
 C          1.2946302054       -0.9118533398       -0.2291455739
 Cl         2.6188022020        0.2892448627       -0.2849622807
 H         -0.4134229912       -1.4162679359        0.9301982408
 H          0.9045947895       -0.6962162975        1.8633298370
 H          0.4278674578        1.5112202000        0.7579292928
 H         -0.8737642282        0.9021038411        1.7880640216
 H         -1.7693405918        1.8637756006       -0.2985791659
 H         -0.8090263618        0.7244737929       -1.2685359499
 H          1.7667692818       -1.8873091868       -0.1158694959
 H          0.7889072702       -0.8644296377       -1.1921386110
  14
  -21.7484674300000       8.899206600307656E-002 !mtd6
 C          0.3328261018       -0.7332595890       -0.8552783005
 C         -0.3480217641        0.6343840018       -0.9263877169
 C         -1.2951679257        0.9119428613        0.2290116566
 Cl        -2.6186846134       -0.2895831273        0.2849617051
 C          1.2987566087       -0.8812440635        0.3083776279
 Cl         2.6232819964        0.3164787395        0.2066510004
 H          0.8728768485       -0.9018590532       -1.7883835429
 H         -0.4284759437       -1.5102188080       -0.7576675425
 H         -0.9035060629        0.6982895515       -1.8634808542
 H          0.4141009112        1.4166987500       -0.9284906279
 H         -0.7894690178        0.8653461031        1.1921190702
 H         -1.7678055238        1.8871409323        0.1152246292
 H          0.8094735857       -0.7251166601        1.2683420007
 H          1.7694104294       -1.8638840699        0.2976703245
  14
  -21.7481430700000       6.313726343352068E-002 !md5
 C          0.2611533697       -0.8193141093       -0.6946203597
 C         -0.3170520988        0.5819026716       -0.8846691146
 C         -1.8356017027        0.5875449615       -0.8533961935
 Cl        -2.4496945006        0.0856429501        0.7478341972
 C          1.7781911155       -0.8315009755       -0.7685002382
 Cl         2.4962797305        0.1122618128        0.5682397377
 H         -0.1183405456       -1.4826582572       -1.4762888046
 H         -0.0601110736       -1.2132325564        0.2707098015
 H          0.0004456291        0.9824499387       -1.8510113997
 H          0.0663140871        1.2385052705       -0.1023273196
 H         -2.2292500460        1.5869924001       -1.0360458957
 H         -2.2515141358       -0.1116802742       -1.5791462697
 H          2.1686187192       -1.8446440521       -0.6762692353
 H          2.1354873706       -0.3806685685       -1.6946008344
  14
  -21.7481430400000       6.313525911937520E-002 !mtd1
 C          0.3168893861       -0.5817243952        0.8836238505
 C         -0.2612957367        0.8195010675        0.6933300943
 C         -1.7782503049        0.8318813997        0.7681403371
 Cl        -2.4971193454       -0.1126252818       -0.5676274322
 C          1.8354432449       -0.5873293548        0.8534828589
 Cl         2.4507524880       -0.0856698264       -0.7473881230
 H         -0.0656289991       -1.2382820018        0.1008027436
 H         -0.0014290585       -0.9826288311        1.8495267886
 H          0.0594201029        1.2130880057       -0.2723229868
 H          0.1187563201        1.4831216676        1.4744895706
 H         -2.1351499616        0.3815969831        1.6946656873
 H         -2.1687281187        1.8448911091        0.6754403072
 H          2.2506101553        0.1121202119        1.5794149508
 H          2.2290475329       -1.5866958640        1.0368225478
  14
  -21.7475553100000       3.389767882857395E-002 !mtd4
 C          0.6338515495       -0.9213025097        0.8961977232
 C         -0.4051923494       -0.3074916218       -0.0425217300
 C         -1.7111668828       -0.0468144375        0.6888114775
 Cl        -2.9239795309        0.6393582446       -0.4266182860
 C          1.9588266402       -1.1719408302        0.1953914772
 Cl         2.7277739309        0.3664898111       -0.2878169422
 H          0.2672575239       -1.8782317343        1.2759480295
 H          0.7957582655       -0.2590173126        1.7485943761
 H         -0.5877854398       -0.9840414801       -0.8798010418
 H         -0.0209829906        0.6310859062       -0.4447566217
 H         -2.1362796022       -0.9683637511        1.0873428165
 H         -1.5794276337        0.6752830564        1.4945627511
 H          2.6645205437       -1.6768401198        0.8544713567
 H          1.8222693666       -1.7536014099       -0.7160738388
  14
  -21.7475553100000       3.389767882857395E-002 !mtd5
 C          0.4051206094        0.3080688548        0.0424515508
 C         -0.6339322982        0.9217991508       -0.8963115359
 C         -1.9592233721        1.1718615565       -0.1958214640
 Cl        -2.7272150237       -0.3667270040        0.2880591718
 C          1.7107265506        0.0459548631       -0.6890409792
 Cl         2.9238296531       -0.6391613973        0.4267336878
 H          0.0204893914       -0.6299466618        0.4455152994
 H          0.5884444153        0.9851237275        0.8791292052
 H         -0.7953969397        0.2597011072       -1.7489455150
 H         -0.2675540678        1.8789457345       -1.2757063927
 H         -1.8231550298        1.7540689701        0.7153490492
 H         -2.6651195074        1.6760082941       -0.8553122519
 H          1.5783823028       -0.6772079901       -1.4937988925
 H          2.1359841080        0.9668437380       -1.0890464204
  14
  -21.7475552800000       3.389660273522694E-002 !mtd8
 C          0.4034360733        0.2996468681       -0.0895524783
 C         -0.6108210083        1.0222630375        0.7973414195
 C         -1.9547041764        1.1897811036        0.1077507615
 Cl        -2.7339043277       -0.3937408503       -0.1679654813
 C          1.7287776255        0.1242631563        0.6323658495
 Cl         2.9124226451       -0.6895638350       -0.4272972530
 H          0.5629271493        0.8721702208       -1.0054313523
 H          0.0096918701       -0.6790503256       -0.3677581321
 H         -0.2356899697        2.0169539584        1.0505768207
 H         -0.7485275514        0.4662977588        1.7264994365
 H         -2.6430420343        1.7706785247        0.7210113699
 H         -1.8438005575        1.6589031741       -0.8696839463
 H          2.1630656879        1.0854603120        0.9084843369
 H          1.6196837207       -0.4983334297        1.5202543729
  14
  -21.7475552400000       3.389516799719419E-002 !md8
 C          0.6109615289       -1.0219929628       -0.7975515319
 C         -0.4036096868       -0.3009057113        0.0902932588
 C         -1.7285467014       -0.1240338733       -0.6319924847
 Cl        -2.9124162978        0.6897819098        0.4269638758
 C          1.9549866147       -1.1899732404       -0.1083349551
 Cl         2.7336965569        0.3938806538        0.1682212389
 H          0.7485062306       -0.4645343603       -1.7258653026
 H          0.2360595057       -2.0163816436       -1.0523628333
 H         -0.0096413066        0.6772405738        0.3704440352
 H         -0.5637689961       -0.8751805367        1.0051822089
 H         -1.6185898286        0.4991768984       -1.5194664418
 H         -2.1631920539       -1.0847162186       -0.9095950136
 H          1.8443267323       -1.6596837217        0.8688266789
 H          2.6433531966       -1.7702492488       -0.7221974369
  14
  -21.7472572000000       2.472680991660669E-002 !mtd6
 C          0.6941414101        0.2565670611        0.1935988309
 C         -0.6943352981       -0.2575292429       -0.1920252150
 C         -1.7757360526        0.6925779868        0.2955152009
 Cl        -3.3902681999        0.0824526214       -0.1596855054
 C          1.7755460605       -0.6937203344       -0.2935862802
 Cl         3.3904178041       -0.0815988042        0.1582539256
 H          0.7625095055        0.3556659747        1.2784701522
 H          0.8567815954        1.2431528550       -0.2442678742
 H         -0.8568532187       -1.2442551696        0.2452517573
 H         -0.7628035426       -0.3560462899       -1.2768773137
 H         -1.7666608307        0.7825584959        1.3816306642
 H         -1.6721094933        1.6791781108       -0.1558232384
 H          1.6732812717       -1.6794896090        0.1597210674
 H          1.7651670102       -0.7857181133       -1.3794884561
  14
  -21.7470106900000       1.904934021024720E-002 !mtd12
 C          0.6553087605        1.0303973145        0.5204645384
 C         -0.7699030718        1.2290696148        1.0425497004
 C         -1.8541358346        1.0861881195       -0.0157428203
 Cl        -2.2470613935       -0.6249006230       -0.3544587780
 C          0.9432013095       -0.3999838509        0.0922932577
 Cl         2.6751207421       -0.5739220719       -0.3077355616
 H          1.3527381948        1.3020602582        1.3156741480
 H          0.8338507097        1.7024897876       -0.3213481070
 H         -0.8417990182        2.2420878272        1.4457040519
 H         -0.9657068706        0.5315780433        1.8587416123
 H         -2.7852830331        1.5411264208        0.3214157543
 H         -1.5498237957        1.5335738989       -0.9616306456
 H          0.7314654013       -1.1051107170        0.8959290713
 H          0.3886012432       -0.6822194059       -0.8001803023
  14
  -21.7470106500000       1.904853391077489E-002 !mtd8
 C          0.6730687536        1.1311551688       -0.1701485593
 C         -0.7252552568        1.4808474624       -0.6855309715
 C         -1.8605541253        1.0499758978        0.2319567175
 Cl        -2.2575723306       -0.6834429266        0.0472687613
 C          0.9493246610       -0.3640395978       -0.1534948206
 Cl         2.6605857471       -0.6573695414        0.2647071686
 H          0.8037919474        1.5340856576        0.8361878944
 H          1.4078468820        1.6130361167       -0.8185095773
 H         -0.8742252979        1.0462950085       -1.6754380573
 H         -0.7842633776        2.5671836227       -0.7860113895
 H         -1.6075156580        1.2062796535        1.2803344827
 H         -2.7766696051        1.5894221757       -0.0077058179
 H          0.3535530728       -0.8847384692        0.5935010267
 H          0.7823282814       -0.8093949733       -1.1341569975
  14
  -21.7470106300000       1.904813077380108E-002 !mtd7
 C          0.7701141976       -1.2267170466       -1.0444632596
 C         -0.6551197833       -1.0293185142       -0.5220739938
 C         -0.9433277496        0.4004901755       -0.0921029833
 Cl        -2.6753793267        0.5729966707        0.3083171564
 C          1.8538382812       -1.0861477559        0.0146564834
 Cl         2.2473514877        0.6242221287        0.3556790403
 H          0.9661678338       -0.5273574406       -1.8590013472
 H          0.8421048867       -2.2388295473       -1.4497792753
 H         -0.8334974460       -1.7025035196        0.3189327586
 H         -1.3525177238       -1.3002594053       -1.3175572060
 H         -0.3883292298        0.6819565363        0.8002678303
 H         -0.7322531107        1.1065221227       -0.8951568028
 H          1.5485955121       -1.5346627060        0.9597451196
 H          2.7848627970       -1.5414408727       -0.3224756838
  14
  -21.7470106200000       1.904792920858525E-002 !mtd6
 C          0.7254416373       -1.4795872845        0.6880434373
 C         -0.6735267220       -1.1309042808        0.1736252610
 C         -0.9494760360        0.3643177603        0.1542336441
 Cl        -2.6606043322        0.6568381780       -0.2662732840
 C          1.8594836657       -1.0500726871       -0.2314957510
 Cl         2.2582117791        0.6832774209       -0.0485886954
 H          0.7844878331       -2.5658287476        0.7906050837
 H          0.8755358607       -1.0434132469        1.6770999114
 H         -1.4076745603       -1.6116785496        0.8236056947
 H         -0.8051752625       -1.5356962720       -0.8319145195
 H         -0.7833849603        0.8117131471        1.1340497822
 H         -0.3529303227        0.8834013550       -0.5931420207
 H          2.7757207329       -1.5899222261        0.0066157975
 H          1.6045323924       -1.2064003545       -1.2792739471
  14
  -21.7468655900000       1.633791360357992E-002 !mtd6
 C          0.7074513427       -1.1115451034        1.0353997630
 C         -0.4125341371       -0.0802657616        0.8802809104
 C         -1.3562871120       -0.4107529292       -0.2655056302
 Cl        -2.7481417575        0.7082442039       -0.2571437830
 C          1.6806589454       -1.1503747006       -0.1328602166
 Cl         2.4933140892        0.4264369792       -0.3474340169
 H          0.2760567626       -2.1099498189        1.1425347929
 H          1.2619449872       -0.8837377953        1.9472934652
 H          0.0224911064        0.9069504780        0.7186971633
 H         -0.9849238877       -0.0475423811        1.8090255486
 H         -0.8767824769       -0.2947036889       -1.2362351829
 H         -1.7626907291       -1.4181582887       -0.1689937445
 H          2.4681923789       -1.8825714663        0.0447743847
 H          1.1793259845       -1.3764560266       -1.0726253900
  14
  -21.7468655000000       1.633635769503501E-002 !mtd9
 C          0.4561698404        0.4661904157        0.7275191536
 C         -0.6675129976        1.4692786675        0.4570832816
 C         -1.6993986075        0.9876445741       -0.5512334113
 Cl        -2.4999769348       -0.5080760436        0.0098978711
 C          1.3339550445        0.2293298391       -0.4915509493
 Cl         2.7383505374       -0.7818337826       -0.0498024896
 H          0.0262210050       -0.4815152883        1.0545994799
 H          1.0769853098        0.8514269532        1.5383654014
 H         -0.2440887402        2.4033626894        0.0795994668
 H         -1.1718516847        1.6841864777        1.4006412618
 H         -2.4869777656        1.7296430162       -0.6820869708
 H         -1.2497253840        0.7607433000       -1.5166179197
 H          0.8056540216       -0.3081431778       -1.2772919287
 H          1.7324487455        1.1658067283       -0.8835848733
  14
  -21.7468654500000       1.633549336548018E-002 !mtd14
 C          0.4125901807        0.0850706790       -0.8809520762
 C         -0.7072083978        1.1171741117       -1.0316190730
 C         -1.6816575698        1.1498976608        0.1359070764
 Cl        -2.4908167374       -0.4291542364        0.3453354422
 C          1.3521143828        0.4065207105        0.2708888674
 Cl         2.7476863379       -0.7077718541        0.2544407948
 H          0.9880407412        0.0598644247       -1.8080665904
 H         -0.0226776260       -0.9034886831       -0.7287039488
 H         -1.2605762452        0.8943136379       -1.9454236204
 H         -0.2757674590        2.1161862986       -1.1327202495
 H         -1.1814039549        1.3745003985        1.0766275754
 H         -2.4707845632        1.8808623889       -0.0400943353
 H          1.7554217199        1.4163069616        0.1862356786
 H          0.8703713379        0.2783684000        1.2390539737
  14
  -21.7468654400000       1.633532050503235E-002 !mtd7
 C          0.6672862499       -1.4672371792       -0.4587058656
 C         -0.4558520088       -0.4633577847       -0.7283260492
 C         -1.3327050230       -0.2272300310        0.4915907528
 Cl        -2.7405539647        0.7792650380        0.0501110551
 C          1.6988789229       -0.9872580905        0.5506980164
 Cl         2.5018473425        0.5076589777       -0.0090623595
 H          1.1718074589       -1.6815221316       -1.4022705257
 H          0.2431624300       -2.4014659171       -0.0821949859
 H         -1.0771767427       -0.8479165895       -1.5390716222
 H         -0.0255991737        0.4843487889       -1.0549358055
 H         -1.7277498114       -1.1640982196        0.8859230478
 H         -0.8047868841        0.3131591142        1.2758174556
 H          1.2483533024       -0.7602140622        1.5156587573
 H          2.4852491637       -1.7304884130        0.6820643693
  14
  -21.7467375100000       1.426708020088568E-002 !mtd1
 C          0.3567495700       -1.0728293620        0.9378246906
 C         -0.4716841261        0.1178472292        1.4319762164
 C         -1.0754769797        0.9470199488        0.3090018068
 Cl        -2.2947458836       -0.0031997294       -0.5876197398
 C          1.8150501448       -0.7480520670        0.6556547480
 Cl         2.0306239655        0.3054379622       -0.7718761190
 H         -0.1102837588       -1.4913592944        0.0452113077
 H          0.3564594886       -1.8479881077        1.7078520678
 H          0.1534609579        0.7756793312        2.0402761349
 H         -1.2827578020       -0.2504848898        2.0628396271
 H         -1.5941845555        1.8198272571        0.7050781747
 H         -0.3244204038        1.2565869135       -0.4148211105
 H          2.2733099259       -0.2256712788        1.4959088979
 H          2.3752065360       -1.6585414144        0.4418280409
  14
  -21.7467374900000       1.426677825709607E-002 !mtd11
 C          0.4713181900       -0.1181585697       -1.4321133541
 C         -0.3565666276        1.0728151267       -0.9377313051
 C         -1.8149018476        0.7483501686       -0.6555241052
 Cl        -2.0304189955       -0.3055625190        0.7717810618
 C          1.0756282267       -0.9471534387       -0.3093076819
 Cl         2.2944927300        0.0033940777        0.5877924150
 H          1.2821228708        0.2498433752       -2.0634753858
 H         -0.1542941652       -0.7759975761       -2.0399543203
 H         -0.3560186702        1.8481386837       -1.7075846272
 H          0.1106128776        1.4910167322       -0.0450336792
 H         -2.3748227937        1.6589256173       -0.4414271040
 H         -2.2733759788        0.2262313410       -1.4958300547
 H          0.3246684999       -1.2569784446        0.4144802580
 H          1.5946229254       -1.8197649855       -0.7054688427
  14
  -21.7467374300000       1.426587246396085E-002 !mtd10
 C          0.5064961582        0.0205086055        1.4259544584
 C         -0.3350126964        1.1590410276        0.8397788589
 C         -1.7989577463        0.8097923965        0.6242565558
 Cl        -2.0466596781       -0.3760518119       -0.6898296878
 C          1.0837104547       -0.9140366444        0.3739399497
 Cl         2.2778073214       -0.0563894558       -0.6417424982
 H         -0.1028431956       -0.5746740806        2.1101050175
 H          1.3322743926        0.4471841048        1.9981998036
 H          0.1104169230        1.4899451968       -0.0994112516
 H         -0.3178813126        2.0041873060        1.5320572333
 H         -2.2366996248        0.3709742259        1.5212833853
 H         -2.3651632629        1.6960336655        0.3370330222
 H          1.6140255239       -1.7442867940        0.8399863751
 H          0.3151809655       -1.2924519435       -0.2968311163
  14
  -21.7467373100000       1.426406105026593E-002 !mtd9
 C          0.3349329435       -1.1589171396       -0.8346148808
 C         -0.5042317937       -0.0189841715       -1.4217879431
 C         -1.0837524559        0.9139363923       -0.3696745106
 Cl        -2.2843049971        0.0551921417        0.6382091387
 C          1.8001925671       -0.8133011968       -0.6215109663
 Cl         2.0518032803        0.3781123056        0.6866479026
 H          0.3147998689       -2.0054468086       -1.5251094804
 H         -0.1102358460       -1.4869305931        0.1057320165
 H         -1.3287640706       -0.4437068383       -1.9973580527
 H          0.1076297276        0.5770058915       -2.1029916170
 H         -0.3174563130        1.2886295137        0.3058337393
 H         -1.6104912285        1.7466166663       -0.8354232391
 H          2.3639643678       -1.6999548766       -0.3305526921
 H          2.2386244133       -0.3801213339       -1.5210867256
  14
  -21.7466332200000       1.277634813301567E-002 !mtd11
 C          0.7878343120        0.5864356541       -0.5567765705
 C         -0.6945767278        0.3176557151       -0.8312618940
 C         -1.5184253872        0.2452820785        0.4450859286
 Cl        -3.2481549281        0.0434072537        0.0474579097
 C          1.4819021293       -0.5981315060        0.0975383890
 Cl         3.2258886288       -0.2597601326        0.2843284948
 H          0.8917152360        1.4658457288        0.0813443430
 H          1.2846014504        0.8011901260       -1.5044981171
 H         -0.8039655856       -0.6152671087       -1.3871618238
 H         -1.0859284988        1.1245919882       -1.4531683449
 H         -1.2429660308       -0.6083559171        1.0624411053
 H         -1.4336436418        1.1646801120        1.0244003143
 H          1.0982444191       -0.7965824848        1.0970905924
 H          1.3990674796       -1.4949360072       -0.5163941753
  14
  -21.7466331500000       1.277540177748575E-002 !mtd6
 C          0.6948591332       -0.3171786576        0.8316592724
 C         -0.7876692437       -0.5858672266        0.5576322532
 C         -1.4819382143        0.5980246250       -0.0976529043
 Cl        -3.2258538860        0.2594519304       -0.2845204214
 C          1.5184190575       -0.2473788253       -0.4449680741
 Cl         3.2479571971       -0.0425951824       -0.0477795005
 H          1.0860096720       -1.1234398540        1.4545777949
 H          0.8048555481        0.6164986468        1.3862105211
 H         -1.2841302023       -0.7995086247        1.5057264517
 H         -0.8920634098       -1.4658904526       -0.0795429377
 H         -1.3992310022        1.4951829871        0.5156588135
 H         -1.0981717474        0.7959391679       -1.0971409889
 H          1.4345613318       -1.1683292567       -1.0220581155
 H          1.2419510784        0.6044587166       -1.0643947409
  14
  -21.7455820200000       4.200574250102839E-003 !mtd11
 C          0.3281036836       -0.2592231155       -1.0579972146
 C         -0.3086257366        1.0038107737       -0.4542712385
 C         -1.8269953942        0.9606301091       -0.4694825887
 Cl        -2.4328023210       -0.3920624029        0.5317240464
 C          1.2682071590       -0.9565597139       -0.0903015979
 Cl         2.6600646757        0.0915327483        0.3103457833
 H          0.8717005555       -0.0111655921       -1.9701772417
 H         -0.4531948006       -0.9763086972       -1.3178990547
 H          0.0033080537        1.8887405475       -1.0113603749
 H          0.0316100415        1.1304328355        0.5742739685
 H         -2.2528078472        1.8721320752       -0.0508538806
 H         -2.2136415184        0.8012122563       -1.4759911169
 H          0.7663575767       -1.1880153182        0.8488484726
 H          1.6795716116       -1.8675133121       -0.5243905454
  14
  -21.7445642700000       1.430813898624162E-003 !mtd8
 C          0.8237485456        0.1333169668       -1.6554098626
 C         -0.6766353194        0.4370580711       -1.6697954581
 C         -1.2226578508        1.0191955144       -0.3719281840
 Cl        -1.7007265717       -0.2629031996        0.7772354654
 C          1.2654706508       -0.8552651157       -0.5834208652
 Cl         1.6234843876       -0.0356946972        0.9634647428
 H          1.3843865189        1.0622714589       -1.5359137494
 H          1.0867442134       -0.2880414823       -2.6286835754
 H         -1.2316785246       -0.4706100530       -1.9140930302
 H         -0.8616652761        1.1618124769       -2.4664089186
 H         -0.4827766540        1.6377613098        0.1342289151
 H         -2.1260179798        1.5999059798       -0.5571757276
 H          0.4944944676       -1.5965306689       -0.3775837366
 H          2.1901948040       -1.3539659501       -0.8729493495
  14
  -21.7445642600000       1.430798757904152E-003 !mtd4
 C          0.6768471175       -0.4370990581        1.6699331553
 C         -0.8235778854       -0.1335822025        1.6551933694
 C         -1.2648650225        0.8553712563        0.5834348719
 Cl        -1.6234932179        0.0358130881       -0.9634147935
 C          1.2234675466       -1.0192140933        0.3723678345
 Cl         1.6999798948        0.2628978121       -0.7774334733
 H          0.8616516153       -1.1619456786        2.4664272482
 H          1.2317331856        0.4704772948        1.9146490267
 H         -1.0872989479        0.2871768687        2.6285290291
 H         -1.3838434292       -1.0626422649        1.5347727219
 H         -2.1892263997        1.3546309970        0.8730191760
 H         -0.4934287260        1.5960920470        0.3774425396
 H          2.1275846872       -1.5986974495        0.5578343670
 H          0.4842975828       -1.6390640435       -0.1333541286
