! r2scan-3c def2/J RI DEFGRID2 scfconv6 printgap
%output
    printlevel normal
end
%cpcm
    smd true
    smdsolvent "water"
end
* xyz 0 1
C -0.1948564433 -2.5779153637 0.0175457046
C 0.0434857991 -1.0984416331 -0.2108086001
O 1.2778993933 -0.7575417656 0.3983728324
C 1.74346033 0.4938081069 0.2529274026
O 1.1490758232 1.346338817 -0.368336136
C 3.0583316344 0.6673543221 0.9386114748
O -0.9754958582 -0.3250248935 0.4094518816
C -1.7473688714 0.4682768593 -0.3527851308
O -1.711320223 0.4583801887 -1.5607155001
C -2.6373351832 1.321194342 0.4894084147
H -1.120674401 -2.8716657274 -0.4662952964
H -0.2610770683 -2.764411657 1.085084531
H 0.6339995589 -3.1385855617 -0.4007411184
H 0.07249303 -0.8304841229 -1.278664884
H 3.2797699354 -0.2064795098 1.5407424758
H 3.8270156286 0.8036554573 0.181064965
H 3.0298990459 1.566646188 1.5476027723
H -2.1149134235 2.2577752417 0.6775149049
H -3.5542307174 1.5371451444 -0.0493496837
H -2.8340834992 0.8313029496 1.4369603079
*
