! pbe def2-sv(p) def2/J RI DEFGRID1 loosescf d4 GCP(DFT/SV(P)) printgap
%output
    printlevel normal
end
* xyz 0 1
C -3.0257616403 0.6052851029 0.0909911995
C -1.7201463336 -0.1296090896 0.3818384492
C -1.5264040188 -1.2976158953 -0.5819223637
C -0.5507845814 0.8545119003 0.2822733217
O 0.662303564 0.2482064136 0.7447265671
C 1.6508797392 0.0270755098 -0.1132636131
O 1.6090889782 0.3311645079 -1.2881569556
C 2.8200150244 -0.6316172414 0.5568677005
H -3.8642431974 -0.0805694752 0.1701323179
H -3.0099634379 1.0169407403 -0.9152728909
H -3.1757673002 1.4186258458 0.7958214427
H -1.7420397073 -0.5161047802 1.4058374696
H -2.3549260415 -1.9957761109 -0.5005975339
H -0.604797143 -1.8318960973 -0.3597386869
H -1.4723890456 -0.9378924879 -1.6076535924
H -0.4075813396 1.1856937361 -0.7511678736
H -0.7210160579 1.7193851377 0.9277816325
H 3.6806214273 0.029284897 0.490862757
H 3.0635325218 -1.5481670546 0.025968735
H 2.5833466859 -0.8403745309 1.5943028349
*
