! pbe def2-sv(p) def2/J RI DEFGRID1 loosescf d4 GCP(DFT/SV(P)) printgap
%output
    printlevel normal
end
* xyz 0 1
C -2.3857411572 0.7503536178 0.0751240549
C -0.8797219761 0.8486279455 -0.1430236477
C -0.1094034571 -0.3240498104 0.4793132306
H -0.4996709132 -0.4987118607 1.4876320024
C -0.2578806803 -1.6017520767 -0.3433687425
C 1.3810899024 0.0199277782 0.6407050099
O 2.055229653 0.2493702577 -0.5776249593
H -2.8836379188 1.6163744737 -0.3542187682
H -2.7926329117 -0.1412726729 -0.3941183051
H -2.614820016 0.7140941144 1.1377815786
H -0.5271951448 1.7813026408 0.3055786162
H -0.678346635 0.8867485051 -1.2155144827
H 0.2297091166 -1.4801714326 -1.3082166243
H -1.3043901441 -1.8417229208 -0.505936151
H 0.210672598 -2.4373819867 0.1709470554
H 1.9037805295 -0.8229190228 1.100099196
H 1.4892969365 0.8920325809 1.3010052055
H 1.6752068613 1.030319776 -1.0018945059
*
