! r2scan-3c def2/J RI DEFGRID2 scfconv6 printgap
%output
    printlevel normal
end
%cpcm
    smd true
    smdsolvent "water"
end
* xyz 0 1
C 1.7843980722 1.0640694288 -0.5681218694
C 1.3176340587 -0.3550809378 -0.2459075492
C 1.7100805262 -0.7514467146 1.1819750634
O -0.0557350241 -0.6088369749 -0.5367831109
C -1.064272864 0.3397796016 -0.1965316494
C -2.302409114 -0.0967559934 -0.9798228062
C -1.3750653551 0.3959126538 1.301150795
H 1.4692704609 1.3507927252 -1.5687602757
H 1.3907321082 1.7800185328 0.1497344667
H 2.8688819794 1.0934164201 -0.5227880448
H 1.8160637935 -1.0501931781 -0.9356733087
H 1.2435763425 -1.698341158 1.4402908518
H 1.4042522827 0.0002214713 1.9036048499
H 2.7890353724 -0.8648111774 1.238575484
H -0.7627569259 1.3389931534 -0.5422002253
H -2.0613495629 -0.171461083 -2.0364787696
H -2.6280514252 -1.0730429028 -0.6317023202
H -3.1044891301 0.6218872983 -0.8441002649
H -0.5792386834 0.884475228 1.8555881217
H -1.5068607003 -0.6117047249 1.6870125614
H -2.2928618855 0.9562813681 1.4558538461
*
