! pbe def2-sv(p) def2/J RI DEFGRID1 loosescf d4 GCP(DFT/SV(P)) printgap
%output
    printlevel normal
end
* xyz 0 1
C 3.2578814774 1.1013865952 1.4077149019
C 3.7699068317 0.8326717996 -0.0079974601
C 3.4041416703 -0.546516214 -0.4951211809
O 4.2673087428 -1.3768963922 -0.7618819972
N 2.1031211544 -0.9306250908 -0.6016957733
C 0.8740632995 -0.299536936 -0.4204287415
C 0.6432733854 1.059582001 -0.6291087695
C -0.6193619606 1.592219415 -0.4502162359
C -1.6795403655 0.7848785644 -0.0710450685
C -1.4646277723 -0.5756212706 0.1173797517
C -0.2034824989 -1.1122933229 -0.0581280992
Cl -2.7781453611 -1.6127833602 0.5712723808
Cl -3.2597741244 1.4635181532 0.1504833184
H 3.6434491917 0.3499335215 2.0924119723
H 2.1728448153 1.0863659382 1.4501259766
H 3.6051962654 2.0760532853 1.738098296
H 4.8606976797 0.8764092923 -0.015000527
H 3.4034202047 1.586891812 -0.7021019923
H 2.0272662171 -1.9258637723 -0.7912386343
H 1.4340184927 1.7117023404 -0.9519822788
H -0.7909145914 2.6432269483 -0.6120224776
H -0.0609694988 -2.1700235421 0.0926417984
*
