  17
        -39.50256902
 C          1.5361734939       -2.5101206519       -0.3509680652
 C          0.7836921315       -1.1956470972       -0.2127945931
 H          0.3775004177       -0.8826479849       -1.1839042984
 C         -0.3597200299       -1.3156544217        0.8075930445
 O         -1.0766626985       -0.1115317497        0.9678209047
 N         -2.0368520174        0.1912292939       -0.0263396091
 O         -2.1495330620       -0.6026135475       -0.8959700653
 O         -2.6044941685        1.1976980556        0.1767843099
 O          1.7167585264       -0.2170640998        0.2315718224
 N          1.4865292263        1.1152247172       -0.1326928087
 O          0.5370342212        1.3261891492       -0.8096095067
 O          2.3002893974        1.8527192503        0.2884481411
 H          2.3609133346       -2.3885505514       -1.0468274906
 H          1.9363655031       -2.8133691692        0.6120678321
 H          0.8673073297       -3.2787800822       -0.7245898688
 H         -1.0352477973       -2.1199457636        0.4991996877
 H          0.0470416249       -1.5250340556        1.7985320881
