  17
        -39.50256902
 C          1.5361734939       -2.5101206519       -0.3509680652
 C          0.7836921315       -1.1956470972       -0.2127945931
 H          0.3775004177       -0.8826479849       -1.1839042984
 C         -0.3597200299       -1.3156544217        0.8075930445
 O         -1.0766626985       -0.1115317497        0.9678209047
 N         -2.0368520174        0.1912292939       -0.0263396091
 O         -2.1495330620       -0.6026135475       -0.8959700653
 O         -2.6044941685        1.1976980556        0.1767843099
 O          1.7167585264       -0.2170640998        0.2315718224
 N          1.4865292263        1.1152247172       -0.1326928087
 O          0.5370342212        1.3261891492       -0.8096095067
 O          2.3002893974        1.8527192503        0.2884481411
 H          2.3609133346       -2.3885505514       -1.0468274906
 H          1.9363655031       -2.8133691692        0.6120678321
 H          0.8673073297       -3.2787800822       -0.7245898688
 H         -1.0352477973       -2.1199457636        0.4991996877
 H          0.0470416249       -1.5250340556        1.7985320881
  17
        -39.50210014
 C          1.1139921512       -2.0951452963        1.2508616324
 C          1.0265183549       -1.1690323721        0.0467141152
 H          1.8729953520       -1.3265516179       -0.6347846577
 C         -0.2689125483       -1.3909351971       -0.7550909788
 O         -1.4172540993       -1.2148798890        0.0454026447
 N         -1.9289980419        0.0942198180        0.1463449912
 O         -1.3846909842        0.9259449189       -0.4956674492
 O         -2.8573274751        0.1659947921        0.8638866949
 O          1.0818874601        0.1607889582        0.5479292351
 N          1.4847512911        1.1740747399       -0.3395858503
 O          1.5376336279        2.2322925016        0.1668839997
 O          1.7299297961        0.8333958176       -1.4468300923
 H          1.9968433440       -1.8558508111        1.8358082230
 H          0.2348034485       -1.9719756808        1.8767831785
 H          1.1728794024       -3.1257051547        0.9155206597
 H         -0.3030963840       -0.7131597392       -1.6159117990
 H         -0.3122277299       -2.4233580741       -1.1024769998
  17
        -39.50137296
 C          1.0280743813       -1.5966306362       -0.7249488159
 C          0.5158821834       -0.3349457312       -0.0420081733
 H          0.0512579594        0.3359119324       -0.7780692512
 C         -0.4907776559       -0.6592854127        1.0739638083
 O         -1.6411816640       -1.2968803841        0.5746890264
 N         -2.6331457629       -0.4637867775        0.0148962445
 O         -3.5655367606       -1.0626300282       -0.3785529618
 O         -2.4039618360        0.6966163254        0.0126319095
 O          1.5684153448        0.3663741950        0.6106749234
 N          2.3678598787        1.2031782221       -0.1820163916
 O          2.1016405235        1.2593586221       -1.3330451102
 O          3.2130100369        1.7435012293        0.4337241409
 H          1.6176376441       -2.1814617536       -0.0231545684
 H          0.1854035537       -2.1935410415       -1.0613051386
 H          1.6423656573       -1.3412517245       -1.5844694853
 H         -0.0511112970       -1.3683339053        1.7765940704
 H         -0.7593336160        0.2619130681        1.6022865853
  17
        -39.50116677
 C          1.9793356756       -2.3131713653        0.4108145356
 C          0.9812470934       -1.2232163355        0.0437727471
 H          0.8580791984       -1.1646599707       -1.0464287068
 C         -0.3991525752       -1.4822246133        0.6789970630
 O         -1.4726476536       -1.1270357422       -0.1647792530
 N         -1.9528845408        0.1987232803       -0.0854119776
 O         -2.8593056360        0.4007334072       -0.8030190663
 O         -1.4030698773        0.9073957606        0.6866843725
 O          1.5285224845        0.0040405812        0.5121328543
 N          1.2941302889        1.1688390717       -0.2338865015
 O          1.8293319123        2.1140288094        0.2132182710
 O          0.6194052864        1.0507735822       -1.2007496673
 H          1.6518041247       -3.2662750320        0.0080665830
 H          2.9545872855       -2.0704989882       -0.0012784364
 H          2.0685266601       -2.3841521241        1.4909455397
 H         -0.5330762507       -2.5495970268        0.8565300028
 H         -0.4667369693       -0.9405044307        1.6295420835
  17
        -39.50108171
 C          2.0517670967       -1.9134139798        0.3383089809
 C          0.7095395829       -1.3710724370       -0.1424958346
 H          0.2452740991       -2.0856801415       -0.8321034843
 C         -0.2598552054       -1.1357391809        1.0276697737
 O         -1.5972613827       -1.0135368761        0.5869683834
 N         -2.0275563901        0.2688761184        0.1946490194
 O         -1.2358688334        1.1429973364        0.2945573551
 O         -3.1426135780        0.2845543633       -0.1763772177
 O          0.8427558226       -0.2224270615       -0.9767153292
 N          1.4419917811        0.9468911164       -0.4779098268
 O          1.5294574090        1.7889764458       -1.2923922383
 O          1.7876408766        0.9357062572        0.6541070549
 H          2.7421226774       -1.9668955135       -0.4999402170
 H          2.4789069131       -1.2799827291        1.1107679560
 H          1.9135502529       -2.9131579892        0.7377819438
 H         -0.2587564931       -2.0131176411        1.6749438470
 H          0.0324292812       -0.2542475933        1.6079167139
  17
        -39.50086250
 C          1.6796739492       -1.9996147724       -0.1482286351
 C          0.5626474491       -0.9847909661       -0.3631101482
 H         -0.1067400975       -1.3383225233       -1.1555388509
 C         -0.2508375520       -0.7633411292        0.9239360111
 O         -1.2329974801        0.2381758780        0.7664144931
 N         -2.4110841483       -0.1335858185        0.0983945954
 O         -2.4717162482       -1.2578025002       -0.2721678085
 O         -3.1884431303        0.7438074049        0.0053589677
 O          1.0232798918        0.2473918634       -0.9134748379
 N          1.9136275107        1.0459743504       -0.1962970095
 O          2.2239528304        2.0200102434       -0.7806952909
 O          2.2459888757        0.6666211879        0.8771296217
 H          1.2436305736       -2.9711717560        0.0618509116
 H          2.2799995254       -2.0759479231       -1.0512921202
 H          2.3192839351       -1.7130268095        0.6821072706
 H         -0.7163026286       -1.7121565488        1.2097241468
 H          0.3835790533       -0.4037162756        1.7357874532
  17
        -39.50069496
 C          0.3494765340       -1.7809790071       -0.5956456391
 C          0.6084983468       -0.2836549560       -0.5052637961
 H          0.7207896214        0.1485570513       -1.5084441942
 C         -0.5159141008        0.4670175651        0.2380629659
 O         -1.7621586751        0.2629249419       -0.3830365708
 N         -2.6460295762       -0.6700163895        0.2031827751
 O         -2.2928582433       -1.1876991774        1.2053369213
 O         -3.6403924159       -0.7943523789       -0.4126748042
 O          1.8251916344       -0.1202738699        0.2116658144
 N          2.5355856777        1.0702146494        0.0279819754
 O          2.0409907012        1.8796756554       -0.6824259838
 O          3.5493944854        1.0997905182        0.6253581691
 H          1.2193863717       -2.2740808430       -1.0192464584
 H          0.1630871625       -2.1922337611        0.3930170409
 H         -0.5046964074       -1.9700421432       -1.2399099432
 H         -0.5529183817        0.1223407428        1.2785593450
 H         -0.3367339523        1.5451063370        0.2094833130
  17
        -39.50062428
 C          1.8070513724       -2.0597223563       -0.0609701973
 C          0.7280855231       -1.0703332035       -0.4801111071
 H          0.7963185716       -0.8547870590       -1.5541912648
 C         -0.6754377722       -1.5929440259       -0.1506322591
 O         -1.6563378574       -0.6808687766       -0.5794018702
 N         -2.2248628318        0.1768652068        0.4002944734
 O         -1.9480805307       -0.0419453862        1.5253900404
 O         -2.9289746838        0.9879591335       -0.0765957795
 O          0.8444170977        0.1589619513        0.2352195048
 N          1.8156487569        1.0657718548       -0.1982731717
 O          2.4696817499        0.7390670592       -1.1301104028
 O          1.8423312334        2.0528150950        0.4427346764
 H          1.6432810751       -3.0118657334       -0.5553991291
 H          2.7878558932       -1.6873993336       -0.3452163923
 H          1.7791452905       -2.2053715923        1.0159535551
 H         -0.8594091643       -2.5292648427       -0.6793347827
 H         -0.7642426744       -1.7474183278        0.9305617434
  17
        -39.50061725
 C          1.3029397309       -1.6712913388        1.0844800085
 C          0.7933604900       -1.0764245415       -0.2221393764
 H          1.4504925969       -1.3569159583       -1.0550593008
 C         -0.6389906473       -1.5264071374       -0.5434911772
 O         -1.5266112623       -1.1368811974        0.4755527236
 N         -2.2122047135        0.0918458031        0.3003137879
 O         -2.1134136533        0.6116532366       -0.7538652176
 O         -2.8197592820        0.4019873590        1.2576997545
 O          0.7388721630        0.3468291770       -0.1387761181
 N          1.9090689565        1.0578307355       -0.4214683275
 O          2.8553930615        0.4200915844       -0.7386090522
 O          1.7796766391        2.2212580157       -0.3018108749
 H          2.3073573100       -1.3124246260        1.2942585182
 H          0.6423431043       -1.3897686142        1.9003510558
 H          1.3303004053       -2.7534304536        1.0057932121
 H         -0.9629698826       -1.0933853242       -1.4966835532
 H         -0.6847651705       -2.6149348793       -0.5929052361
  17
        -39.50056233
 C          1.0977192858       -1.7034650562        0.4643558588
 C          0.4511636200       -0.5630220662       -0.3124866214
 H         -0.1798230891       -0.9655417071       -1.1137585357
 C         -0.4173007198        0.3310301351        0.5965260106
 O         -1.5487629915       -0.3706058501        1.0579691936
 N         -2.6665621056       -0.4167236600        0.2023717540
 O         -2.5597010311        0.1400166946       -0.8363093426
 O         -3.5675568444       -1.0206607701        0.6583749460
 O          1.3899693752        0.2034291950       -1.0610842069
 N          2.3864372017        0.9221795532       -0.4016372567
 O          3.1404153822        1.4428015058       -1.1413281868
 O          2.3551477358        0.9354944221        0.7841514742
 H          1.6862525539       -2.3236523458       -0.2068083628
 H          1.7373105370       -1.3227918007        1.2563830112
 H          0.3170828900       -2.3101771687        0.9137804895
 H          0.1217644103        0.6162930542        1.5018162488
 H         -0.7264095645        1.2261993116        0.0430427653
  17
        -39.50050035
 C          1.2922639205       -1.5699666243        1.4113383324
 C          0.9208783741       -1.0274947285        0.0369617285
 H          1.7026277416       -1.2623398213       -0.6964952342
 C         -0.4157832810       -1.5945238586       -0.4661998403
 O         -1.4664501784       -1.2563546493        0.4067893703
 N         -2.1776054261       -0.0644954589        0.1247593995
 O         -1.9357397304        0.4699926419       -0.8993354962
 O         -2.9480508298        0.2063711312        0.9702851009
 O          0.7708753764        0.3882235358        0.1041153975
 N          1.7844696971        1.1982542340       -0.4266137252
 O          1.5701792297        2.3451394885       -0.2793596113
 O          2.6990723602        0.6477020600       -0.9381512572
 H          1.4420351160       -2.6433999459        1.3527300015
 H          2.2106105478       -1.1055159432        1.7610083998
 H          0.4954097608       -1.3579218625        2.1190082836
 H         -0.6345911521       -1.2114570192       -1.4695832074
 H         -0.3748484459       -2.6840656222       -0.4849639294
  17
        -39.50049807
 C          0.4234041433       -1.9675875482        0.3660563783
 C          0.7574960864       -0.7115355954       -0.4267822401
 H          1.3689672352       -0.9538323735       -1.3064536846
 C         -0.4928425190        0.0281390214       -0.9367679543
 O         -1.3774597618        0.3672843425        0.1065468353
 N         -2.4809702694       -0.4762974805        0.3269520142
 O         -2.6065380741       -1.3976892966       -0.4061085720
 O         -3.1456251148       -0.1280067355        1.2330189853
 O          1.5153051515        0.1164999767        0.4476710093
 N          2.3022691209        1.1120122395       -0.1235531851
 O          2.2597726564        1.2111253915       -1.3063392423
 O          2.9191610537        1.7306619668        0.6658281973
 H          1.3362157842       -2.5029639077        0.6088895205
 H         -0.0660556392       -1.6955540550        1.2978915089
 H         -0.2279641242       -2.6134826365       -0.2154657627
 H         -0.2114149057        0.9704777797       -1.4128428860
 H         -1.0045539768       -0.6063374619       -1.6681980685
  17
        -39.50049160
 C          0.4462193452       -2.0132855790       -0.0672073871
 C          0.7891819084       -0.6119497481       -0.5535606841
 H          1.4429944755       -0.6518916694       -1.4352689597
 C         -0.4519222146        0.2089427030       -0.9489902891
 O         -1.3698314274        0.3343232657        0.1130627909
 N         -2.4726158607       -0.5382732272        0.1304996812
 O         -3.1660980225       -0.3754747765        1.0667727996
 O         -2.5694707281       -1.2981590462       -0.7724002603
 O          1.4908090705        0.0141567268        0.5142607474
 N          2.2711970711        1.1262138849        0.2128704659
 O          2.8369973477        1.5670826005        1.1466099774
 O          2.2746854720        1.4828457960       -0.9200009354
 H          1.3580720124       -2.5797753862        0.0955026438
 H         -0.0876207865       -1.9550846150        0.8779998967
 H         -0.1675372557       -2.5239246049       -0.8034810859
 H         -0.1649452182        1.2272994325       -1.2220187144
 H         -0.9353072279       -0.2716344658       -1.8061239050
  17
        -39.50041744
 C          1.3682427172       -1.9763095114       -0.6844626825
 C          0.5854165795       -0.7723673018       -0.1744134349
 H          0.1280511864       -0.2432743278       -1.0211420589
 C         -0.4913009735       -1.1836801095        0.8374299682
 O         -1.4470393185       -0.1714333576        1.0538948288
 N         -2.4965125022       -0.0901871280        0.1190497156
 O         -2.4753026966       -0.8793513221       -0.7642969368
 O         -3.2623226810        0.7698779468        0.3572034757
 O          1.4446721326        0.1297339415        0.5188648879
 N          2.1200456487        1.0946308673       -0.2327004263
 O          1.9223395045        1.0978584429       -1.4007487792
 O          2.8107341033        1.7868038121        0.4235011205
 H          0.7000315071       -2.6538584711       -1.2063224038
 H          2.1378493376       -1.6501306065       -1.3795582094
 H          1.8374567889       -2.4969091143        0.1461300581
 H         -0.9842871657       -2.0979468910        0.4924533396
 H         -0.0302618901       -1.3466140410        1.8124482132
  17
        -39.50041203
 C          0.1609604188       -0.1609379411       -1.4908139355
 C          0.4259924989        0.3304533233       -0.0727836211
 H          0.4146257872        1.4283787846       -0.0498125105
 C         -0.5922968593       -0.2112790314        0.9440376493
 O         -1.8847503551        0.2759393877        0.6812637462
 N         -2.8021264523       -0.5955718727        0.0463048232
 O         -2.4268039732       -1.6910812763       -0.1865826695
 O         -3.8396028764       -0.0812741461       -0.1573902390
 O          1.6848010726       -0.1320090411        0.4051629154
 N          2.8229206526        0.5977133642        0.0336621514
 O          3.8179415942        0.1439724928        0.4691177629
 O          2.6475062486        1.5501865703       -0.6458720848
 H         -0.7943123685        0.2203434624       -1.8405070230
 H          0.9327385287        0.2061611812       -2.1627675998
 H          0.1492668395       -1.2479588833       -1.5187753026
 H         -0.5860091764       -1.3064058266        0.9146931969
 H         -0.3271836625        0.1239515737        1.9491715661
  17
        -39.50038859
 C          0.7879735404       -1.4362317554       -1.0977083360
 C          0.4745465414       -0.3180412308       -0.1111836189
 H          0.0829822681        0.5579886929       -0.6473490499
 C         -0.5331824220       -0.7366606004        0.9765183732
 O         -1.7197376325        0.0225862193        0.9412389801
 N         -2.6861951002       -0.3633901719       -0.0064108667
 O         -2.4094434901       -1.2882761506       -0.6924726789
 O         -3.6533360741        0.3049383717        0.0208856326
 O          1.6537393332        0.0809993043        0.5871481923
 N          2.5039317260        0.9928119313       -0.0473262085
 O          3.4526314436        1.2594247298        0.5976115099
 O          2.1747403001        1.3739416597       -1.1187087382
 H         -0.1314868816       -1.7835705398       -1.5591790003
 H          1.4537858194       -1.0734554207       -1.8769374548
 H          1.2655108397       -2.2628789520       -0.5776653563
 H         -0.7664558911       -1.8020372728        0.8887464431
 H         -0.1035316664       -0.5358306386        1.9593803885
  17
        -39.50038697
 C          0.7587808401       -1.3918094095       -1.1217796785
 C          0.4712657676       -0.2870894766       -0.1123424273
 H          0.0911078126        0.6062477644       -0.6278692559
 C         -0.5363944376       -0.7067829888        0.9750951367
 O         -1.7308372551        0.0393512233        0.9264574572
 N         -2.7006746472       -0.3777222779       -0.0045512532
 O         -2.4225578178       -1.3177310962       -0.6689347449
 O         -3.6723252272        0.2843374803        0.0130561140
 O          1.6621567491        0.0769281855        0.5853658106
 N          2.5279973959        0.9795266737       -0.0412266589
 O          3.4864162056        1.2157188025        0.6011855152
 O          2.2002825405        1.3837583976       -1.1045098371
 H          1.2334375681       -2.2322273959       -0.6214520665
 H         -0.1698200471       -1.7227361448       -1.5768849597
 H          1.4188027822       -1.0236561689       -1.9034167397
 H         -0.7572399277       -1.7756012032        0.8974473501
 H         -0.1130110782       -0.4912441367        1.9576414324
  17
        -39.50035268
 C          0.8402982497       -2.0477170304       -0.4991413055
 C          0.6548824748       -0.5610019143       -0.2327807167
 H          0.3031875503       -0.0376054388       -1.1323870872
 C         -0.3301289387       -0.3027828735        0.9281041375
 O         -1.5326824672       -1.0207883140        0.7844213263
 N         -2.4916163928       -0.4861666276       -0.0997052530
 O         -3.4698250290       -1.1379155205       -0.1598015938
 O         -2.1963600142        0.5146136529       -0.6550497097
 O          1.9338293129       -0.0543501550        0.1265487127
 N          2.1648930187        1.3192985150       -0.0232270826
 O          1.2527906243        1.9738357153       -0.3980787190
 O          3.2643276984        1.6321887542        0.2590326286
 H         -0.1146138008       -2.5070204843       -0.7354364153
 H          1.5223791974       -2.1918209708       -1.3314301165
 H          1.2562336771       -2.5267850355        0.3825296388
 H          0.1023522820       -0.6702907923        1.8610936927
 H         -0.5403708060        0.7705287293        1.0075648820
  17
        -39.50023489
 C          0.7695832739       -2.1668866690       -0.3912510276
 C          0.6165078609       -0.6740600624       -0.1382260175
 H          0.2667874473       -0.1554721754       -1.0417336702
 C         -0.3594301681       -0.3921654820        1.0229641832
 O         -1.6266447149       -0.9584359082        0.7917613649
 N         -2.5439634966       -0.1925499961        0.0378047717
 O         -2.1739550664        0.8705051475       -0.3206670913
 O         -3.5698821348       -0.7451132914       -0.1239900383
 O          1.8915868365       -0.1621628521        0.2201486020
 N          2.2619173762        1.1129366087       -0.2455949484
 O          3.3388102012        1.4262185086        0.1112826710
 O          1.4749871942        1.6893314427       -0.9127825963
 H          1.3967290933       -2.3384293004       -1.2610563744
 H          1.2310560332       -2.6367701344        0.4726738593
 H         -0.2068409477       -2.6114923092       -0.5587623234
 H          0.0077987767       -0.8673579467        1.9346388646
 H         -0.4527737703        0.6892074291        1.1795035746
  17
        -39.50022986
 C          1.0993249704       -1.7440118114       -0.8794177918
 C          0.5315941197       -0.5484576920       -0.1246656840
 H          0.0950646444        0.1633492014       -0.8384779300
 C         -0.5231215048       -0.9603369445        0.9163602739
 O         -1.6159619568       -0.0731997397        0.9681103454
 N         -2.6023496298       -0.2509198821       -0.0219159729
 O         -2.4095214678       -1.1208593310       -0.8024649101
 O         -3.4955325484        0.5080756410        0.0719865376
 O          1.5566709314        0.1237381638        0.6053042858
 N          2.3211004262        1.0772126795       -0.0731559320
 O          3.1411222378        1.5766904513        0.6089246274
 O          2.0586939172        1.2600614765       -1.2134016158
 H          0.2992349105       -2.2444929783       -1.4162808918
 H          1.8424850359       -1.4115263332       -1.5999579057
 H          1.5633652536       -2.4385771566       -0.1840794812
 H         -0.8768961315       -1.9744250264        0.7075839159
 H         -0.0800947768       -0.9195275957        1.9125018829
  17
        -39.50013058
 C          0.4670432996       -0.8591945268       -1.3616921024
 C          0.4551273089        0.0422884888       -0.1335091852
 H          0.2502684327        1.0821903390       -0.4245331550
 C         -0.5784772731       -0.3807711761        0.9250579886
 O         -1.8284367834        0.2282780439        0.7008555087
 N         -2.8153845449       -0.5171274883        0.0209062330
 O         -2.5217315146       -1.6131700168       -0.3117243127
 O         -3.8181737939        0.0811807852       -0.1168175731
 O          1.7133950504       -0.0047743869        0.5348564030
 N          2.7384993225        0.8082379683        0.0334656806
 O          3.7424170395        0.7032829155        0.6394650455
 O          2.4760214183        1.4801938938       -0.9044156416
 H          0.7548828895       -1.8679945521       -1.0760360633
 H         -0.5178352183       -0.8914376983       -1.8167211413
 H          1.1722370343       -0.4809952556       -2.0978650872
 H         -0.6843281788       -1.4701486189        0.9399134352
 H         -0.2481657026       -0.0342106047        1.9067674967
  17
        -39.49997548
 C          1.0014728189       -2.2144692872       -0.1264007009
 C          0.8607173683       -0.7094616651       -0.2889230559
 H          0.8218089942       -0.4368009892       -1.3515117267
 C         -0.4087595033       -0.1788652060        0.3942438170
 O         -1.5091868006       -0.7654505667       -0.2688823650
 N         -2.7776004006       -0.3021561782        0.1206208395
 O         -2.7944568887        0.5213090713        0.9691833954
 O         -3.6568804486       -0.8188733085       -0.4664929385
 O          2.0038936834       -0.1159537649        0.3078969044
 N          2.3741786257        1.1660377816       -0.1228580003
 O          1.6717472735        1.6774183767       -0.9277427668
 O          3.3547397083        1.5601149861        0.3942155031
 H          0.1229579769       -2.6996005956       -0.5395893992
 H          1.8869458212       -2.5632998650       -0.6488569998
 H          1.0953023442       -2.4647749203        0.9264748196
 H         -0.4108273433       -0.4562133686        1.4548899679
 H         -0.4651020613        0.9133305144        0.3110763033
  17
        -39.49989394
 C          1.0903083538       -2.2785089734       -0.0979307176
 C          0.8508283217       -0.7813227340       -0.2073542357
 H          0.6808375170       -0.4922910041       -1.2530360026
 C         -0.3639905291       -0.3401962795        0.6263943731
 O         -1.5115658560       -0.9569075361        0.0855095721
 N         -2.7108546038       -0.2111582218        0.0696033635
 O         -2.6732196996        0.8676317211        0.5484548342
 O         -3.5973669284       -0.8004917153       -0.4303402501
 O          2.0178115426       -0.1317122350        0.2740894664
 N          2.2743841328        1.1694129900       -0.1816561243
 O          1.4692772286        1.6435102128       -0.9096007007
 O          3.2789110903        1.6149393909        0.2389203913
 H          0.1894171029       -2.8032990848       -0.3996911343
 H          1.9153770550       -2.5734330874       -0.7390391868
 H          1.3339275894       -2.5373104444        0.9284126272
 H         -0.2358384426       -0.6522272496        1.6687859608
 H         -0.4823507956        0.7497741427        0.5882926801
  17
        -39.49978311
 C          0.7705188876       -1.6676674489       -0.1986224498
 C          0.4144037317       -0.2736922625       -0.7045902714
 H         -0.1108949102       -0.3405649891       -1.6644063680
 C         -0.4813420378        0.5234753298        0.2694638710
 O         -1.8323999796        0.5101251613       -0.1418772105
 N         -2.6472453339       -0.5359322263        0.3247010016
 O         -2.1324749574       -1.3412513396        1.0226099604
 O         -3.7564139198       -0.4573910692       -0.0602853491
 O          1.5774782615        0.4655614544       -1.0732264904
 N          2.4876184849        0.8237128855       -0.0796415585
 O          3.4560196865        1.3411866116       -0.5062190009
 O          2.1827619122        0.5875969468        1.0422873093
 H          1.4107393462       -2.1667174621       -0.9219593886
 H          1.2848345594       -1.6131608028        0.7575168009
 H         -0.1333670401       -2.2535205682       -0.0643349772
 H         -0.3913378158        0.1362001610        1.2894198667
 H         -0.2092945573        1.5813207604        0.2535565165
  17
        -39.49976833
 C          0.7239179046       -1.6182730058        0.2625094979
 C          0.5014375019       -0.4646855005       -0.7096432411
 H          0.1500061865       -0.8469894499       -1.6750370916
 C         -0.5348674719        0.5634377500       -0.2085813319
 O         -1.8391266969        0.1703731310       -0.5753844290
 N         -2.6285019891       -0.4824705268        0.3945141267
 O         -2.1409571202       -0.6492015973        1.4581725156
 O         -3.6923981342       -0.7751108003       -0.0139194594
 O          1.7236871707        0.1672854957       -1.0810482460
 N          2.4634475986        0.8426978523       -0.1086117855
 O          3.4924240833        1.2472833931       -0.5144649365
 O          1.9797348702        0.9390008229        0.9693670565
 H          0.9914168290       -1.2522032799        1.2505806268
 H         -0.1837653266       -2.2077266198        0.3488136324
 H          1.5177648147       -2.2612979474       -0.1099922379
 H         -0.4724855415        0.6901893978        0.8776316670
 H         -0.3715211462        1.5243622389       -0.7040701577
  17
        -39.49960177
 C          1.7167141445       -2.4372228766       -0.3017788170
 C          0.9821255663       -1.1066689229       -0.3780963876
 H          0.9591679515       -0.7277797676       -1.4083967228
 C         -0.4551599480       -1.2263992022        0.1376222874
 O         -1.0710262949        0.0350000941       -0.0444802809
 N         -2.4586495660        0.0831250541        0.1627666455
 O         -2.9753985113       -0.9389963110        0.4620828978
 O         -2.9146800339        1.1554065999        0.0039404281
 O          1.6722291966       -0.1665203487        0.4294851762
 N          1.8357397189        1.1438941765       -0.0612994238
 O          1.4930033909        1.3502552210       -1.1723558990
 O          2.3288381133        1.8583679188        0.7326710742
 H          1.7429052927       -2.7887390578        0.7255745254
 H          1.2166384082       -3.1740027085       -0.9222260810
 H          2.7372034690       -2.3127707224       -0.6521320152
 H         -0.9972111942       -1.9950350570       -0.4220842806
 H         -0.4520963933       -1.4877920580        1.2014704679
  17
        -39.49946779
 C          0.5303221610       -1.1013253714        0.9571176759
 C          0.6423590563       -0.4111377217       -0.3980908297
 H          1.3250893186       -0.9723659596       -1.0502394050
 C         -0.7045306567       -0.2779885315       -1.1242719937
 O         -1.7218460686        0.2286414128       -0.2937585593
 N         -2.5999165115       -0.6970078855        0.2993815568
 O         -2.4398178089       -1.8385582536        0.0276899394
 O         -3.3980541198       -0.1855853107        0.9958662065
 O          1.1477814515        0.9141081958       -0.2511696416
 N          2.5298330850        1.0630663276       -0.1253344445
 O          2.8643224719        2.1856562490       -0.0034615933
 O          3.1795069810        0.0723645381       -0.1625453399
 H          0.0410178249       -2.0644427515        0.8421057773
 H          1.5211948316       -1.2645859484        1.3731800098
 H         -0.0388625141       -0.4804872237        1.6460200285
 H         -0.6092950803        0.4372928097       -1.9436772172
 H         -1.0007538967       -1.2585061197       -1.5127060280
  17
        -39.49946626
 C          0.2890479785       -0.1327741619        1.5212886858
 C          0.7059092370       -0.4927411325        0.0992362477
 H          1.5014776342       -1.2496915415        0.1211126602
 C         -0.4491593645       -1.0432016446       -0.7503302840
 O         -1.6070141431       -0.2464993240       -0.6730726676
 N         -2.6163147999       -0.6484315647        0.2210915282
 O         -3.5302248652        0.0919321445        0.2384790397
 O         -2.4331309283       -1.6532590170        0.8205118081
 O          1.1946255792        0.6549592699       -0.5916529391
 N          2.5162952112        1.0332269536       -0.3517786444
 O          2.8392774708        1.9919880142       -0.9546428233
 O          3.1364668519        0.3596249345        0.4009746369
 H          1.1629042612        0.1449002397        2.1051252559
 H         -0.4013975142        0.7080991954        1.5061229924
 H         -0.1854123331       -0.9876644120        1.9948807801
 H         -0.1612937566       -1.0435960528       -1.8035383779
 H         -0.6809107545       -2.0625440316       -0.4227818138
  17
        -39.49939102
 C          1.0340780082       -1.5078278869       -0.8081131229
 C          0.6463767322       -0.1281752018       -0.2942736809
 H          0.5597815082        0.5735628283       -1.1339632020
 C         -0.6784966071       -0.1527478982        0.4717501522
 O         -1.6950351586       -0.4188659872       -0.4723052942
 N         -2.9997374982       -0.5123544379        0.0431776613
 O         -3.1122132936       -0.3522202513        1.2093587657
 O         -3.8058752537       -0.7427691116       -0.7823984481
 O          1.6046460314        0.3686193293        0.6337457694
 N          2.7519997899        0.9799944538        0.1052458644
 O          3.4957883479        1.3508837834        0.9383388469
 O          2.8247774455        1.0470051710       -1.0734688670
 H          1.9331407949       -1.4458513210       -1.4156844457
 H          1.2121537329       -2.1802835949        0.0275371354
 H          0.2263322233       -1.8969111072       -1.4199847683
 H         -0.6573230832       -0.9314028283        1.2416542497
 H         -0.8515770201        0.8138152312        0.9578005154
  17
        -39.49922883
 C          1.2490751310       -1.5305872430        0.9826979707
 C          0.7593493967       -0.8679947983       -0.2985369158
 H          0.4732260254       -1.6367771659       -1.0245044485
 C         -0.4674356864        0.0245668629       -0.0570613568
 O         -1.5591690599       -0.8561447847        0.1289793502
 N         -2.8146869903       -0.2488787643        0.2938287755
 O         -2.8335986407        0.9326232086        0.2455850292
 O         -3.6843030640       -1.0250901118        0.4578525243
 O          1.7860047110       -0.1724435690       -0.9963937209
 N          2.4060772462        0.9281897148       -0.3952182963
 O          3.2871636049        1.3645681169       -1.0424006068
 O          1.9800078075        1.2851770707        0.6511973034
 H          2.1191590475       -2.1465398572        0.7705849386
 H          1.5080982853       -0.7905872905        1.7355464075
 H          0.4553643247       -2.1624857735        1.3689850738
 H         -0.3404175752        0.6565151552        0.8286918178
 H         -0.6474600185        0.6639308305       -0.9304329227
  17
        -39.49868931
 C          1.2089968506       -1.5000392330        1.4962237811
 C          1.0627696386       -1.4441224736       -0.0199364342
 H          1.5953492318       -2.2857467222       -0.4750477972
 C         -0.4074400133       -1.5375216990       -0.4801942081
 O         -1.3194629469       -0.9350485133        0.4074216800
 N         -1.9476802440        0.2704498586        0.0077239408
 O         -1.7155990105        0.6510574994       -1.0864895086
 O         -2.6541143811        0.7014413443        0.8388970674
 O          1.7675150662       -0.3489439598       -0.6076971757
 N          1.4515876802        0.9652648065       -0.2552742572
 O          0.5116491267        1.1236015471        0.4489070907
 O          2.1848617652        1.7546196935       -0.7281681999
 H          0.8288168560       -2.4529044344        1.8506499772
 H          2.2581478308       -1.4128327001        1.7670163249
 H          0.6444050744       -0.7060618381        1.9771951995
 H         -0.5111107773       -1.0922560191       -1.4776008265
 H         -0.6903324842       -2.5915803261       -0.5298834952
  17
        -39.49801376
 C          1.7750784745       -2.1051829398       -0.0090466443
 C          0.8488393214       -1.0494482299       -0.6042449879
 H          0.5540859415       -1.3300800385       -1.6210977497
 C         -0.4193724085       -0.8811167106        0.2401878269
 O         -1.2520184059        0.0611405393       -0.4111858388
 N         -2.6029487488        0.0685796309       -0.0329840830
 O         -2.9199847684       -0.7172420831        0.7935899857
 O         -3.2395415157        0.8723782382       -0.6100136419
 O          1.5130577955        0.1865216071       -0.8461590499
 N          2.0175529830        0.9343780958        0.2147009808
 O          1.8556081543        0.5100664665        1.3110581040
 O          2.5576372864        1.9201038764       -0.1369705442
 H          2.6947685070       -2.1473730364       -0.5870773109
 H          2.0150443997       -1.8767393658        1.0259304801
 H          1.2929449735       -3.0766671406       -0.0507604973
 H         -0.9305152849       -1.8474780207        0.3083673542
 H         -0.1856694018       -0.5367816843        1.2530945990
  17
        -39.49710314
 C          0.5959967514       -1.5752782386        1.0811667181
 C          0.9277514900       -1.2017868742       -0.3601133612
 H          1.4047645349       -2.0581172736       -0.8513501418
 C         -0.3014006653       -0.8464344144       -1.2175886766
 O         -1.0838025595        0.2083381898       -0.7073403220
 N         -2.2049656399       -0.1270716214        0.0727317784
 O         -2.4126555977       -1.2820438915        0.2355386236
 O         -2.7994905090        0.8144418389        0.4481583979
 O          1.9475623805       -0.2128209752       -0.4853525713
 N          1.8304974394        1.0424598515        0.1372766695
 O          0.8828912224        1.2377610817        0.8136662318
 O          2.7452095409        1.7419231950       -0.1108098172
 H          1.5095668875       -1.8460657843        1.6047862053
 H          0.1209424324       -0.7573532497        1.6160269062
 H         -0.0746057830       -2.4299119697        1.0789443940
 H          0.0317621546       -0.5110660029       -2.2031140634
 H         -0.9212096768       -1.7434545271       -1.3239637756
  17
        -39.49709719
 C          0.5770329050       -1.5532608256        1.0829299771
 C          0.9194274286       -1.1885133087       -0.3580676526
 H          1.3836289873       -2.0530145717       -0.8470421170
 C         -0.3022572684       -0.8129744373       -1.2179418805
 O         -1.0961454005        0.2212543103       -0.6842078211
 N         -2.2228870867       -0.1453650661        0.0729845474
 O         -2.4252310175       -1.3062043000        0.1972396310
 O         -2.8269112819        0.7800512401        0.4727575989
 O          1.9568694611       -0.2178319300       -0.4809666224
 N          1.8559721284        1.0428641725        0.1338526358
 O          0.9053510557        1.2582594925        0.7996258133
 O          2.7849435007        1.7250191412       -0.1096884031
 H         -0.1080835954       -2.3963904133        1.0806653301
 H          1.4841642939       -1.8383219143        1.6100656130
 H          0.1148804017       -0.7251083192        1.6136301914
 H          0.0393978522       -0.4476335655       -2.1898459237
 H         -0.9165150035       -1.7092966458       -1.3575357159
