! r2scan-3c def2/J RI DEFGRID2 scfconv6 printgap
%output
    printlevel normal
end
%cpcm
    smd true
    smdsolvent "water"
end
* xyz 0 1
C -2.8177401103 0.0407989283 0.5825554688
C -1.6815798695 0.7808598532 -0.1229686058
C -0.4955481099 -0.1293668157 -0.3164726064
O -0.5301426624 -1.2069021696 -0.8753185376
O 0.6104132542 0.385646118 0.2001693101
C 1.8299581793 -0.367814449 0.0815901208
C 2.989177241 0.5468654809 0.4269058385
H -3.0589231012 -0.8692707995 0.0386952037
H -2.526506829 -0.2288034425 1.594625832
H -3.7001477499 0.6714582751 0.6282214368
H -1.3626197376 1.6529223976 0.4456278584
H -2.0161397607 1.0963253081 -1.1128317956
H 1.7715313893 -1.2204569656 0.7657451231
H 1.9009910668 -0.7531942254 -0.9408187835
H 2.8712648841 0.9291320479 1.4364122751
H 3.9179599423 -0.0099190798 0.3598057345
H 3.0225559515 1.384751544 -0.2633127803
*
