  14
  -13.6675589800000       3.703812572224337E-002 !gc
 C         -1.4175287653        0.2943439324       -0.1083148803
 C         -0.0000109323        0.0000002431        0.3759487039
 C          0.4538549140       -1.3747526224       -0.1083191298
 C          0.9636843563        1.0804077575       -0.1083099209
 H         -1.7523953255        1.2648801750        0.2512253087
 H         -1.4512806375        0.3012282770       -1.1959905937
 H         -2.1111809878       -0.4624895030        0.2514273225
 H         -0.0000020989       -0.0000461819        1.4721075781
 H         -0.2191486494       -2.1500055939        0.2513464489
 H          1.4561358075       -1.5969821983        0.2513550856
 H          0.4646505387       -1.4074646833       -1.1959808925
 H          0.9864799044        1.1062639004       -1.1959616845
 H          1.9716219583        0.8851152796        0.2511567360
 H          0.6551245822        2.0595087455        0.2514981145
  14
  -13.6675589800000       3.703812572224337E-002 !gc
 C         -1.4175056520        0.2943531499       -0.1083162639
 C          0.0000093504       -0.0000078390        0.3759375551
 C          0.4538372996       -1.3747933643       -0.1083128194
 C          0.9636615578        1.0804471314       -0.1083051106
 H         -1.7523885873        1.2648516020        0.2512534091
 H         -1.4512788940        0.3012729704       -1.1959709258
 H         -2.1111342582       -0.4624877023        0.2513983135
 H          0.0000144408       -0.0000224592        1.4720970439
 H          0.4647060252       -1.4074954720       -1.1959689463
 H         -0.2191880700       -2.1500618572        0.2512787886
 H          1.4560908833       -1.5970614599        0.2513992337
 H          0.6549290662        2.0595830383        0.2512479974
 H          0.9866794463        1.1060988049       -1.1959475456
 H          1.9715394895        0.8853335221        0.2514128773
  14
  -13.6675589800000       3.703812572224337E-002 !gc
 C         -1.4174972209        0.2943262926       -0.1083307269
 C          0.0000048721        0.0000050334        0.3759838315
 C          0.4538253245       -1.3747442118       -0.1083318071
 C          0.9636664586        1.0804096297       -0.1083193001
 H         -1.7524050841        1.2647558889        0.2513996600
 H         -1.4512402631        0.3014028532       -1.1959803685
 H         -2.1110975167       -0.4625595594        0.2512661972
 H          0.0000221796       -0.0000155088        1.4721506355
 H          1.4560815049       -1.5969806210        0.2514046334
 H          0.4647057583       -1.4074338098       -1.1959909836
 H         -0.2192135415       -2.1500052230        0.2512684098
 H          1.9715804043        0.8851620399        0.2512382397
 H          0.6550471268        2.0595000962        0.2514327852
 H          0.9865261734        1.1062126468       -1.1959727106
  14
  -13.6675589700000       3.703773378874888E-002 !gc
 C         -1.4174388738        0.2943494257       -0.1083391139
 C          0.0000327408       -0.0000193880        0.3760106281
 C          0.4537970688       -1.3748004092       -0.1083261297
 C          0.9636108246        1.0804658810       -0.1083205985
 H         -1.4512788915        0.3007249528       -1.1960226770
 H         -2.1111674735       -0.4622118469        0.2517720801
 H         -1.7520931549        1.2651186860        0.2507351408
 H          0.0000127186       -0.0000621158        1.4721778683
 H          0.4646025901       -1.4074921309       -1.1959597873
 H         -0.2191811998       -2.1500769946        0.2512780906
 H          1.4560752177       -1.5970547890        0.2512874663
 H          1.9716318738        0.8849564306        0.2507961703
 H          0.6552996561        2.0595103273        0.2518599587
 H          0.9860776861        1.1066409933       -1.1959793811
  14
  -13.6675589700000       3.703773378874888E-002 !gc
 C         -1.4174860390        0.2943889389       -0.1083220426
 C         -0.0000093212       -0.0000312653        0.3759637853
 C          0.4538625886       -1.3747799545       -0.1083171466
 C          0.9636255081        1.0804229575       -0.1083197219
 H         -2.1109570751       -0.4629825415        0.2506151655
 H         -1.7526817218        1.2645032341        0.2520219278
 H         -1.4510118838        0.3022111552       -1.1959778783
 H         -0.0000341172       -0.0000980831        1.4721231176
 H         -0.2192304064       -2.1500332027        0.2511891348
 H          1.4560706870       -1.5970869540        0.2515079926
 H          0.4648445728       -1.4074399048       -1.1959817986
 H          1.9715154275        0.8851955840        0.2513084109
 H          0.6549907310        2.0595470572        0.2513514489
 H          0.9865803453        1.1061755919       -1.1959753053
  14
  -13.6675589700000       3.703773378874888E-002 !gc
 C         -1.4175070440        0.2943568124       -0.1083212102
 C         -0.0000087493       -0.0000090530        0.3759653334
 C          0.4538565081       -1.3747520568       -0.1083225301
 C          0.9636551442        1.0803980469       -0.1083160667
 H         -1.7524265844        1.2647462105        0.2514510168
 H         -1.4512282323        0.3015555702       -1.1959953124
 H         -2.1111131576       -0.4625801730        0.2512141922
 H          0.0000181936        0.0000086850        1.4721310182
 H          1.4558423472       -1.5972904295        0.2519918746
 H          0.4654220938       -1.4072291762       -1.1959879332
 H         -0.2195742538       -2.1499576669        0.2506830001
 H          0.6547814859        2.0595449821        0.2510069274
 H          0.9868602362        1.1058511004       -1.1959470447
 H          1.9714672181        0.8854253830        0.2516267057
  14
  -13.6675589700000       3.703773378874888E-002 !gc
 C         -1.4175079815        0.2943446035       -0.1083217771
 C         -0.0000174938        0.0000026471        0.3759826691
 C          0.4538515631       -1.3747459113       -0.1083281143
 C          0.9636673811        1.0803976813       -0.1083183644
 H         -1.4511591671        0.3017177912       -1.1959895530
 H         -2.1110800108       -0.4627083196        0.2510078727
 H         -1.7525535778        1.2646472083        0.2515798905
 H         -0.0000461165        0.0000081918        1.4721454925
 H         -0.2190671363       -2.1500437994        0.2513496054
 H          1.4561386974       -1.5969671373        0.2512560295
 H          0.4646114621       -1.4075320963       -1.1959700415
 H          0.6547861474        2.0595680126        0.2509539832
 H          0.9869824617        1.1058552912       -1.1959522185
 H          1.9714650708        0.8854665283        0.2516874796
  14
  -13.6675589700000       3.703773378874888E-002 !gc
 C         -1.4175213996        0.2943129242       -0.1083200823
 C          0.0000008379        0.0000210296        0.3759544954
 C          0.4538225322       -1.3747525303       -0.1083258003
 C          0.9636984894        1.0804263922       -0.1083086276
 H         -1.7521753138        1.2651039102        0.2507017978
 H         -1.4513963747        0.3005039978       -1.1959687479
 H         -2.1112259173       -0.4621618668        0.2519555357
 H         -0.0000529510       -0.0000169886        1.4721173539
 H          0.4654841507       -1.4071924589       -1.1959840479
 H         -0.2196649047       -2.1499342970        0.2505896300
 H          1.4557584660       -1.5973367206        0.2520713017
 H          0.9861982410        1.1065946189       -1.1959665468
 H          1.9717049639        0.8848913350        0.2508494807
 H          0.6553641592        2.0594553321        0.2518747205
  14
  -13.6675589600000       3.703734185940179E-002 !mtd5
 C         -1.4175233028        0.2943962016       -0.1083026522
 C          0.0000024210       -0.0000221672        0.3759026080
 C          0.4538820345       -1.3748376141       -0.1082990107
 C          0.9636541209        1.0804537520       -0.1082966722
 H         -2.1111568730       -0.4625030686        0.2511858063
 H         -1.7525608422        1.2647811956        0.2513720067
 H         -1.4512589637        0.3015251430       -1.1959236435
 H         -0.0000162694        0.0000360369        1.4720567057
 H          1.4563007372       -1.5969144839        0.2510637550
 H          0.4643814653       -1.4077407397       -1.1959504535
 H         -0.2188610547       -2.1501896550        0.2516434010
 H          0.6546679691        2.0595892362        0.2510009045
 H          0.9868047480        1.1059760308       -1.1959431108
 H          1.9715170699        0.8855574209        0.2516840107
  14
  -13.6675589600000       3.703734185940179E-002 !mtd8
 C         -1.4174507606        0.2943182085       -0.1083382755
 C          0.0000200848       -0.0000047896        0.3760250306
 C          0.4537767554       -1.3747827806       -0.1083312508
 C          0.9636463264        1.0804768094       -0.1083221376
 H         -1.4511418545        0.3010518993       -1.1959803279
 H         -2.1112028724       -0.4624137296        0.2514869026
 H         -1.7521697865        1.2648937936        0.2509697695
 H         -0.0000789856       -0.0000079986        1.4721977454
 H          1.4559346128       -1.5971376504        0.2515072788
 H          0.4648760697       -1.4073974047       -1.1959588568
 H         -0.2193160384       -2.1500584094        0.2510262906
 H          1.9714099515        0.8855024129        0.2517701088
 H          0.6547327149        2.0597154224        0.2508179562
 H          0.9870466853        1.1057629119       -1.1959941907
  14
  -13.6675589600000       3.703734185940179E-002 !gc
 C         -1.4174965165        0.2943783649       -0.1083263559
 C         -0.0000189068       -0.0000138437        0.3760102553
 C          0.4538679566       -1.3747551854       -0.1083280577
 C          0.9636412992        1.0804025843       -0.1083258818
 H         -1.7524486985        1.2647306719        0.2514114110
 H         -1.4511944482        0.3015072032       -1.1959672812
 H         -2.1111174759       -0.4626517820        0.2510851540
 H         -0.0000622002       -0.0000706476        1.4721799328
 H          1.4558988320       -1.5972797953        0.2518000389
 H          0.4653014989       -1.4072413640       -1.1959515988
 H         -0.2194244493       -2.1500057762        0.2506870015
 H          0.9870180675        1.1057512577       -1.1959553250
 H          1.9714202073        0.8855337897        0.2517596435
 H          0.6546821634        2.0595843913        0.2508342979
  14
  -13.6675589600000       3.703734185940179E-002 !gc
 C         -1.4175276743        0.2944297112       -0.1083068667
 C         -0.0000200135       -0.0000399554        0.3759101150
 C          0.4539164514       -1.3748145648       -0.1083039459
 C          0.9636295801        1.0804142411       -0.1083096942
 H         -2.1111631777       -0.4624346492        0.2513826264
 H         -1.7523932961        1.2649219488        0.2513922609
 H         -1.4513119872        0.3014865031       -1.1959981981
 H         -0.0000172502       -0.0000535182        1.4720710109
 H          1.4557789178       -1.5974696552        0.2523376381
 H          0.4658286094       -1.4072172107       -1.1959749320
 H         -0.2196915527       -2.1499994984        0.2504476902
 H          0.9861485907        1.1064763370       -1.1959686681
 H          1.9716412165        0.8849642282        0.2508964232
 H          0.6551996669        2.0594514511        0.2517782872
  14
  -13.6675589600000       3.703734185940179E-002 !gc
 C         -1.4175248210        0.2944058207       -0.1083090942
 C         -0.0000174660       -0.0000248939        0.3759267290
 C          0.4538976565       -1.3747976100       -0.1083088162
 C          0.9636432061        1.0804140746       -0.1083094256
 H         -2.1111849955       -0.4624387735        0.2514380307
 H         -1.7523760028        1.2649381995        0.2512339714
 H         -1.4512993138        0.3012887065       -1.1959787192
 H         -0.0000202390       -0.0000193582        1.4720880686
 H          0.4657191178       -1.4072074084       -1.1959772747
 H         -0.2196631886       -2.1499910826        0.2504952288
 H          1.4557912818       -1.5974358061        0.2522392505
 H          1.9716577865        0.8849369455        0.2508636516
 H          0.6552539660        2.0594514561        0.2518100526
 H          0.9861385623        1.1065082074       -1.1959647246
  14
  -13.6675589600000       3.703734185940179E-002 !gc
 C         -1.4175275126        0.2944124919       -0.1083125607
 C         -0.0000726865       -0.0000270870        0.3759752080
 C          0.4539396209       -1.3747259728       -0.1083270319
 C          0.9636444389        1.0803308448       -0.1083318460
 H         -1.7521495476        1.2651669930        0.2506882682
 H         -1.4513588559        0.3007165288       -1.1959508235
 H         -2.1112570984       -0.4620697238        0.2518989207
 H         -0.0001218762        0.0000151885        1.4721387393
 H         -0.2192818224       -2.1499726652        0.2509450084
 H          1.4560596637       -1.5971147136        0.2517073271
 H          0.4651748447       -1.4072956241       -1.1959999309
 H          0.6550680120        2.0593884549        0.2515293122
 H          0.9865077958        1.1062652642       -1.1959752708
 H          1.9715512146        0.8850161649        0.2512138313
  14
  -13.6675589500000       3.703694993427167E-002 !mtd12
 C         -1.4175592815        0.2943889149       -0.1083178715
 C         -0.0000499792        0.0000034285        0.3759722691
 C          0.4539206298       -1.3747277276       -0.1083323466
 C          0.9636684316        1.0803412782       -0.1083252339
 H         -1.7523846735        1.2649647458        0.2511979493
 H         -1.4512719739        0.3011712327       -1.1960118264
 H         -2.1111688567       -0.4624253816        0.2515520154
 H          0.0000194505        0.0000352798        1.4721357326
 H         -0.2186736804       -2.1500696556        0.2519238814
 H          1.4564695404       -1.5966284379        0.2507827393
 H          0.4641184869       -1.4076794203       -1.1959990417
 H          1.9713611707        0.8856557682        0.2522158309
 H          0.6544050720        2.0596016581        0.2504768982
 H          0.9873661758        1.1053039718       -1.1959959474
  14
  -13.6675589500000       3.703694993427167E-002 !mtd11
 C         -1.4176074248        0.2943076727       -0.1083086881
 C         -0.0000720412        0.0000392911        0.3759741959
 C          0.4539066689       -1.3746680322       -0.1083409099
 C          0.9637718104        1.0803147732       -0.1083211922
 H         -1.4513056293        0.3015882073       -1.1959442704
 H         -2.1112081830       -0.4626815458        0.2510758066
 H         -1.7526948318        1.2646171209        0.2515089505
 H         -0.0001089324        0.0000057590        1.4721406020
 H         -0.2190538794       -2.1499064501        0.2514955007
 H          1.4562756933       -1.5967674864        0.2512635836
 H          0.4645584079       -1.4074224034       -1.1960318096
 H          0.9871705960        1.1057035035       -1.1959755848
 H          1.9715695612        0.8854379882        0.2517986373
 H          0.6548089550        2.0595003264        0.2508683004
  14
  -13.6675589500000       3.703694993427167E-002 !mtd11
 C         -1.4174062757        0.2942899929       -0.1083390740
 C          0.0000907471        0.0000001540        0.3759687673
 C          0.4537100613       -1.3748598482       -0.1083162403
 C          0.9636296225        1.0805616046       -0.1082988618
 H         -1.4513193910        0.3009078696       -1.1959929098
 H         -2.1110701941       -0.4623638810        0.2516448270
 H         -1.7521683038        1.2649071708        0.2509714718
 H          0.0000563476       -0.0000256860        1.4721443374
 H          0.4648854446       -1.4073194090       -1.1959536314
 H         -0.2195401212       -2.1501603211        0.2508955118
 H          1.4557982913       -1.5973092112        0.2515739305
 H          0.6552635743        2.0596160969        0.2518188201
 H          0.9861855078        1.1066915006       -1.1959221929
 H          1.9716209908        0.8851523576        0.2508862562
  14
  -13.6675589500000       3.703694993427167E-002 !gc
 C         -1.4175031505        0.2944342638       -0.1083196280
 C         -0.0000232430       -0.0000539214        0.3759582098
 C          0.4539040512       -1.3748087412       -0.1083130461
 C          0.9636084109        1.0804196417       -0.1083242598
 H         -2.1112185482       -0.4620680205        0.2518986260
 H         -1.7521149252        1.2651739354        0.2508478290
 H         -1.4514118586        0.3008390520       -1.1959539626
 H         -0.0000791515       -0.0001346684        1.4721164834
 H          1.4556355225       -1.5976750354        0.2525443332
 H          0.4661598816       -1.4069997626       -1.1959669300
 H         -0.2198755794       -2.1500017443        0.2500326396
 H          1.9715124317        0.8851855077        0.2512569067
 H          0.6550166708        2.0595129523        0.2514214854
 H          0.9865415742        1.1062721410       -1.1959723134
  14
  -13.6675589400000       3.703655801321924E-002 !gc
 C         -1.4175147839        0.2944254796       -0.1083112977
 C         -0.0000195584       -0.0000377862        0.3759236332
 C          0.4539051428       -1.3748004841       -0.1083077139
 C          0.9636302395        1.0804221942       -0.1083145473
 H         -1.4514768492        0.3007337310       -1.1959444603
 H         -2.1111793285       -0.4621710230        0.2518830915
 H         -1.7522191343        1.2651488809        0.2508759791
 H         -0.0000267996       -0.0000252024        1.4720864526
 H          0.4663601000       -1.4070360213       -1.1959833305
 H         -0.2200125543       -2.1499414024        0.2499527088
 H          1.4555401739       -1.5977056354        0.2527644610
 H          0.9861128268        1.1065276271       -1.1959536607
 H          1.9716334258        0.8849187717        0.2508492134
 H          0.6552557450        2.0594382147        0.2518281294
  14
  -13.6675589400000       3.703655801321924E-002 !gc
 C         -1.4175100893        0.2943758515       -0.1083175673
 C          0.0000178108       -0.0000158066        0.3759261449
 C          0.4538479926       -1.3748053529       -0.1083090782
 C          0.9636425608        1.0804482629       -0.1083040007
 H         -1.7527559263        1.2643983984        0.2520853480
 H         -1.4510272440        0.3023963482       -1.1959785529
 H         -2.1109194893       -0.4630372748        0.2505343832
 H          0.0000536513       -0.0001141362        1.4720826324
 H          0.4648384974       -1.4075823134       -1.1959606790
 H         -0.2192747078       -2.1499933511        0.2512834507
 H          1.4560245979       -1.5971284110        0.2515590940
 H          1.9718322034        0.8844953869        0.2501194480
 H          0.6557610662        2.0593901050        0.2525402368
 H          0.9854879079        1.1071400344       -1.1959714185
  14
  -13.6675589400000       3.703655801321924E-002 !gc
 C         -1.4175206550        0.2944616814       -0.1083162649
 C         -0.0000430912       -0.0000616763        0.3759456868
 C          0.4539530018       -1.3747762117       -0.1083141159
 C          0.9636090128        1.0803701488       -0.1083303161
 H         -1.4514423119        0.3013091799       -1.1959714761
 H         -2.1111063812       -0.4622866183        0.2515774923
 H         -1.7523946123        1.2649963403        0.2513261346
 H         -0.0000320146       -0.0000692700        1.4721077205
 H          1.4557578190       -1.5975142227        0.2524347614
 H          0.4660299377       -1.4070723419       -1.1960051001
 H         -0.2197596894       -2.1499736965        0.2502318661
 H          0.6544606104        2.0595827869        0.2506907303
 H          0.9871676451        1.1055356738       -1.1960037282
 H          1.9713396333        0.8855643592        0.2520307741
  14
  -13.6675589400000       3.703655801321924E-002 !mtd4
 C         -1.4174644475        0.2943625456       -0.1083284638
 C          0.0000340330       -0.0000250187        0.3759556794
 C          0.4538123779       -1.3748219621       -0.1083139304
 C          0.9636221257        1.0804783495       -0.1083103220
 H         -2.1111856305       -0.4620207976        0.2521737659
 H         -1.7520127950        1.2651902148        0.2507140313
 H         -1.4514739300        0.3005093805       -1.1959434119
 H          0.0000165321       -0.0000203754        1.4721191827
 H         -0.2196738016       -2.1500429733        0.2504660507
 H          1.4557679593       -1.5974508602        0.2519672547
 H          0.4654836245       -1.4072019984       -1.1960112591
 H          0.6543269774        2.0597403909        0.2504372680
 H          0.9873999826        1.1054693065       -1.1959596415
 H          1.9713023514        0.8859002338        0.2522417490
  14
  -13.6675589300000       3.703616609638370E-002 !gc
 C         -1.4174821126        0.2943132101       -0.1083287265
 C          0.0000268695        0.0000135071        0.3759592256
 C          0.4537859693       -1.3747756405       -0.1083241796
 C          0.9636656658        1.0804650561       -0.1083085137
 H         -1.4509598175        0.3019428481       -1.1959876761
 H         -2.1109170288       -0.4630155013        0.2507429864
 H         -1.7527116392        1.2644611453        0.2518507844
 H         -0.0000218798       -0.0001115654        1.4721151350
 H         -0.2193598545       -2.1499629545        0.2511921670
 H          1.4558830073       -1.5971618650        0.2516255273
 H          0.4648739005       -1.4075149849       -1.1959708521
 H          1.9719072688        0.8843662638        0.2498851869
 H          0.6559839994        2.0593795145        0.2527921517
 H          0.9853650401        1.1074248472       -1.1959789610
  14
  -13.6675589300000       3.703616609638370E-002 !gc
 C         -1.4174700412        0.2943377139       -0.1083335324
 C          0.0000233357       -0.0000047189        0.3759756541
 C          0.4538051533       -1.3747765089       -0.1083261472
 C          0.9636432868        1.0804527391       -0.1083171034
 H         -2.1109036610       -0.4630151914        0.2506234432
 H         -1.7527026401        1.2644374097        0.2519767441
 H         -1.4509806332        0.3021429224       -1.1959767456
 H         -0.0000126797       -0.0001051439        1.4721343056
 H          0.4647080911       -1.4076126274       -1.1959660662
 H         -0.2192298314       -2.1499674554        0.2513512770
 H          1.4559798040       -1.5970813714        0.2514558274
 H          0.6559775223        2.0593565539        0.2528408755
 H          0.9852373169        1.1074239096       -1.1959934432
 H          1.9719060396        0.8843110583        0.2498075375
  14
  -13.6675589300000       3.703616609638370E-002 !gc
 C         -1.4175007076        0.2943721278       -0.1083209858
 C          0.0000160855       -0.0000208959        0.3759467565
 C          0.4538453328       -1.3747878953       -0.1083119423
 C          0.9636411485        1.0804396400       -0.1083089974
 H         -1.4510549374        0.3020465719       -1.1960124490
 H         -2.1109919117       -0.4629450287        0.2506886386
 H         -1.7527270883        1.2645565372        0.2518860314
 H          0.0000579864       -0.0000882439        1.4720977836
 H          1.4561380611       -1.5969801391        0.2513362162
 H          0.4645929773       -1.4075834283       -1.1959764362
 H         -0.2191271165       -2.1500409331        0.2514862609
 H          0.9851017064        1.1074976862       -1.1959973422
 H          1.9719274686        0.8841658141        0.2496642259
 H          0.6560606985        2.0593356938        0.2530098014
  14
  -13.6675589200000       3.703577418362576E-002 !mtd14
 C         -1.4174212258        0.2944528297       -0.1083321907
 C          0.0000512213       -0.0000722169        0.3759207155
 C          0.4538372389       -1.3749166402       -0.1083000592
 C          0.9635257618        1.0805254416       -0.1083123068
 H         -2.1110637621       -0.4622303645        0.2515969910
 H         -1.7521359894        1.2650615627        0.2511129708
 H         -1.4513021887        0.3011998549       -1.1959888125
 H          0.0001298571       -0.0001195817        1.4720855289
 H         -0.2192999979       -2.1501876464        0.2510597557
 H          1.4559451521       -1.5973029493        0.2517292734
 H          0.4651450108       -1.4075544303       -1.1958808852
 H          0.9849760435        1.1076365883       -1.1959555793
 H          1.9717958070        0.8842742399        0.2497104303
 H          0.6558935303        2.0593488751        0.2530547413
  14
  -13.6675588900000       3.703459847037407E-002 !mtd9
 C         -1.4176775119        0.2945602420       -0.1082717815
 C         -0.0001675571       -0.0000651335        0.3759084763
 C          0.4541625586       -1.3746996357       -0.1083037072
 C          0.9636595624        1.0801888796       -0.1083296668
 H         -2.1113450287       -0.4622188550        0.2514220822
 H         -1.7526284803        1.2650747080        0.2512114519
 H         -1.4514455599        0.3014371111       -1.1959103993
 H         -0.0001557458       -0.0000057611        1.4720683479
 H          0.4645235771       -1.4076236786       -1.1959515554
 H         -0.2185031630       -2.1500410645        0.2517235146
 H          1.4566459502       -1.5967382156        0.2509601993
 H          0.9864538037        1.1061364516       -1.1959563287
 H          1.9715940118        0.8849216398        0.2511370123
 H          0.6551341030        2.0592441343        0.2514964025
