  14
        -13.66755898
 C         -1.4175287653        0.2943439324       -0.1083148803
 C         -0.0000109323        0.0000002431        0.3759487039
 C          0.4538549140       -1.3747526224       -0.1083191298
 C          0.9636843563        1.0804077575       -0.1083099209
 H         -1.7523953255        1.2648801750        0.2512253087
 H         -1.4512806375        0.3012282770       -1.1959905937
 H         -2.1111809878       -0.4624895030        0.2514273225
 H         -0.0000020989       -0.0000461819        1.4721075781
 H         -0.2191486494       -2.1500055939        0.2513464489
 H          1.4561358075       -1.5969821983        0.2513550856
 H          0.4646505387       -1.4074646833       -1.1959808925
 H          0.9864799044        1.1062639004       -1.1959616845
 H          1.9716219583        0.8851152796        0.2511567360
 H          0.6551245822        2.0595087455        0.2514981145
