  12
  -46.3636000000000       0.500005290974645      !mtd10
 C         -1.1066192576       -0.0185172301       -0.0478507653
 C         -0.0185124843        1.1065712536        0.0480690690
 C          1.1066124587        0.0185103977       -0.0478625945
 C          0.0185138182       -1.1065940331        0.0482147068
 F          0.0295459065       -1.7609470784        1.2125201812
 F          0.0334121251       -2.0028981989       -0.9380041213
 F          2.0034646135        0.0335346929        0.9379428466
 F          1.7604615101        0.0293920535       -1.2126037266
 F         -0.0334328497        2.0030561710       -0.9380161189
 F         -0.0295205315        1.7608598404        1.2124377430
 F         -1.7604610423       -0.0296595173       -1.2125938644
 F         -2.0034662767       -0.0333192423        0.9379564370
  12
  -46.3635999800000       0.499994709025355      !md1
 C         -1.1066068860       -0.0185083164        0.0476505976
 C         -0.0185239752        1.1066425298       -0.0481568592
 C          1.1065975479        0.0184914766        0.0475777706
 C          0.0185130422       -1.1066392761       -0.0479920075
 F          0.0334519895       -2.0026265810        0.9385638900
 F          0.0295379373       -1.7614836312       -1.2121132797
 F          1.7606977791        0.0296399434        1.2122633982
 F          2.0032379566        0.0333827545       -0.9383833368
 F         -0.0294628221        1.7615847633       -1.2121529824
 F         -0.0334205797        2.0024711944        0.9385048201
 F         -2.0032938475       -0.0335890095       -0.9383171752
 F         -1.7607355976       -0.0293708447        1.2122166151
