  12
        -46.36360000
 C         -1.1066192576       -0.0185172301       -0.0478507653
 C         -0.0185124843        1.1065712536        0.0480690690
 C          1.1066124587        0.0185103977       -0.0478625945
 C          0.0185138182       -1.1065940331        0.0482147068
 F          0.0295459065       -1.7609470784        1.2125201812
 F          0.0334121251       -2.0028981989       -0.9380041213
 F          2.0034646135        0.0335346929        0.9379428466
 F          1.7604615101        0.0293920535       -1.2126037266
 F         -0.0334328497        2.0030561710       -0.9380161189
 F         -0.0295205315        1.7608598404        1.2124377430
 F         -1.7604610423       -0.0296595173       -1.2125938644
 F         -2.0034662767       -0.0333192423        0.9379564370
