! pbe def2-sv(p) def2/J RI DEFGRID1 loosescf d4 GCP(DFT/SV(P)) printgap
%output
    printlevel normal
end
* xyz 0 1
C -0.0769304046 -2.546569427 -0.024169338
C -0.0154572034 -1.0377226116 -0.1611708463
O 1.071073675 -0.5505106313 0.6144584453
C 1.8653704686 0.4171764353 0.1245389653
O 1.7399185186 0.8803799106 -0.9849786904
C 2.903615634 0.8117245676 1.1240300863
O -1.2037533483 -0.4780764739 0.3809477533
C -1.8237371827 0.5297232243 -0.257629043
O -1.4551030968 0.9671023459 -1.3224740307
C -3.007471722 1.004755137 0.5204017191
H -0.9227367758 -2.9247661198 -0.5886066319
H -0.1940233975 -2.7978582144 1.0255128846
H 0.8420399383 -2.979711709 -0.4047933027
H 0.101989747 -0.6977590768 -1.2012517504
H 3.8698902515 0.8715619161 0.6314097514
H 2.6602126761 1.8023489254 1.5022136448
H 2.9209811736 0.0992378244 1.9411059767
H -3.2895116954 0.2604410939 1.2567684706
H -2.7369106421 1.9301412404 1.0250202873
H -3.8244633307 1.2199250367 -0.1617293712
*
