! r2scan-3c def2/J RI DEFGRID2 scfconv6 printgap
%output
    printlevel normal
end
%cpcm
    smd true
    smdsolvent "water"
end
* xyz 0 1
C 2.7914573099 -0.1430039683 -0.2666774163
C 1.3643677881 -0.0748768066 -0.8024169788
C 0.3087088042 -0.200520425 0.3063435029
H 0.6046988895 -1.0285508308 0.9741610375
C -1.0897154057 -0.5349915823 -0.2491517074
C -2.0535671808 -0.802018204 0.9061660103
C -1.6259511828 0.5861198152 -1.136296033
O 0.2032921065 0.990115106 1.0682121964
H 3.0035687109 0.6890552491 0.4007962682
H 3.5002204771 -0.1001171717 -1.0896358403
H 2.9510408703 -1.0725665687 0.2758950493
H 1.2140241708 0.8730997062 -1.3207551367
H 1.210778146 -0.8845063644 -1.5171906017
H -0.9935208247 -1.4497277923 -0.8442190771
H -2.1263969695 0.0830116485 1.5330686317
H -3.0420168156 -1.0462108304 0.5260189079
H -1.7012603342 -1.6309341869 1.5160552505
H -1.6118086101 1.5235771024 -0.5863979146
H -2.6491036954 0.3692925467 -1.4322916095
H -1.0246034705 0.6955603093 -2.0344492249
H 1.0683861775 1.1962099877 1.4432736677
*
