  20
        -23.29743438
 C         -5.4545956223        0.6641264823       -0.2240686601
 C         -4.0611433342        0.6505415460        0.3917643689
 C         -3.1626130778       -0.3965326505       -0.2618642409
 C         -1.7646357208       -0.4110865734        0.3504203919
 C         -0.8631335292       -1.4484807276       -0.3123437514
 C          0.5181229040       -1.5204772017        0.3050001478
 I          1.6819846961        0.2741890735       -0.0271591816
 H         -5.3997263980        0.8906379088       -1.2866719160
 H         -6.0773377425        1.4157561051        0.2550939153
 H         -5.9342615636       -0.3052689882       -0.1057227977
 H         -3.6050848217        1.6366756269        0.2794756997
 H         -4.1391060945        0.4421811259        1.4614394125
 H         -3.0862824873       -0.1870642573       -1.3315625334
 H         -3.6188849395       -1.3835944676       -0.1502808724
 H         -1.8396269389       -0.6262089837        1.4198882524
 H         -1.3190062278        0.5806045466        0.2419795202
 H         -0.7835152345       -1.2354824884       -1.3811473921
 H         -1.3176741337       -2.4392706256       -0.2072378586
 H          0.4651483067       -1.6447902020        1.3839041822
 H          1.1034401057       -2.3290515586       -0.1257541980
