! pbe def2-sv(p) def2/J RI DEFGRID1 loosescf d4 GCP(DFT/SV(P)) printgap
%output
    printlevel normal
end
* xyz 0 1
C -2.9432689728 0.5002797799 3.9449e-05
C -1.7756550323 -0.4791098966 -0.0026375267
C -0.4351665472 0.2521999266 0.0024672103
C 0.7370800364 -0.7394434014 0.0015869234
C 1.9957282684 -0.0518737177 0.0004186528
N 2.992483245 0.5137283346 -0.0018140489
H -3.8888939859 -0.0354991518 -0.0043840894
H -2.909967412 1.1319438558 0.8848282352
H -2.9066647256 1.1407150316 -0.8782829811
H -1.8415198749 -1.1229517247 0.8769780257
H -1.8388832903 -1.1150180806 -0.8882142647
H -0.3688532872 0.8902487594 0.8864108033
H -0.3653506242 0.8957639726 -0.8772029246
H 0.6944777843 -1.3764226732 0.8887236316
H 0.6933166749 -1.3758129956 -0.8859870095
*
