! pbe def2-sv(p) def2/J RI DEFGRID1 loosescf d4 GCP(DFT/SV(P)) printgap
%output
    printlevel normal
end
* xyz 0 1
C 1.6082100891 -0.8367574107 -0.0377566132
O 1.2842934831 0.5063057805 0.2574672289
C 0.0432959958 0.9516143237 -0.2596597677
C -1.1994670282 0.3148091259 0.405499292
N -1.7901862227 -0.8193279909 -0.2836140893
H 0.9736215233 -1.5352448845 0.5162539023
H 2.6417940907 -0.9700664212 0.2737294691
H 1.5213816316 -1.0319566476 -1.1125577639
H 0.0535540954 2.0270202266 -0.0739507749
H 0.0122300343 0.7799607373 -1.3472605923
H -0.9256543658 0.0005430588 1.4159695801
H -1.9765395514 1.0773805712 0.488944246
H -1.1205009068 -1.5746746044 -0.3778554393
H -2.0754214189 -0.5440110919 -1.2168681778
*
