! wb97x-v def2-tzvp def2/J RIJCOSX DEFGRID2 scfconv7 GCP(DFT/TZ) printgap
%output
    printlevel normal
end
* xyz 0 1
C -2.540637534063469 -0.12979545339145163 0.49989105977141307
C -1.7969585120862326 -1.2667789658002653 0.19536395706095078
C -0.5120839645600039 -1.1425136661004542 -0.3310613007301314
C 0.04856914052220857 0.11779450057940029 -0.561790967629093
C -0.7075874666871881 1.253027888421254 -0.24751613529377445
C -1.99125804904121 1.1321017377993396 0.2762059364591497
C 1.4582096110206555 0.2564973738609547 -1.070664246310311
C 2.4565375853480713 0.4703711065570895 0.06887971153521251
O 2.5161181044380174 -0.6500380740768266 0.96677535614965
H -3.5429330326900286 -0.22477786603584707 0.9058582754952402
H -2.217453638439489 -2.2536342249781263 0.3640692944175701
H 0.060970161135088366 -2.033040292921593 -0.5753276334486822
H -0.2846357926587197 2.2392739468403113 -0.4213376397332655
H -2.566550855791307 2.023693972831225 0.5071004469890128
H 1.7481483714012094 -0.6373246973243093 -1.6335720306039927
H 1.533225473690499 1.1194759979111482 -1.7425694781126195
H 3.465295637785661 0.5830519174035933 -0.33864700180271246
H 2.202807255869452 1.3861614330216852 0.6216800545293183
H 1.6406949867907465 -0.747648431747307 1.3660070927222236
*
