  15
        -20.13437481
 C         -0.7385967645       -1.1896758208        0.2307619358
 C          0.7277467536       -1.1667834423       -0.2196924289
 O          1.3824094350        0.0003326244        0.2328299465
 C          0.7272006259        1.1671054136       -0.2196096523
 C         -0.7392946914        1.1893581144        0.2306572714
 N         -1.4552680503       -0.0003886890       -0.2027377788
 H         -0.7790705571       -1.2152047935        1.3233935308
 H         -1.2421747448       -2.0737928129       -0.1638936961
 H          1.2841385651       -2.0063615095        0.1997563690
 H          0.7766905042       -1.2157795199       -1.3210798150
 H          1.2830677231        2.0068950572        0.2001199848
 H          0.7761916037        1.2164383192       -1.3209590962
 H         -0.7799183239        1.2151539880        1.3232872983
 H         -1.2432158462        2.0731383065       -0.1642828455
 H         -1.5229132228       -0.0004163612       -1.2184203105
