  15
  -20.1343748100000       0.445122978347524      !md1
 C         -0.7385967645       -1.1896758208        0.2307619358
 C          0.7277467536       -1.1667834423       -0.2196924289
 O          1.3824094350        0.0003326244        0.2328299465
 C          0.7272006259        1.1671054136       -0.2196096523
 C         -0.7392946914        1.1893581144        0.2306572714
 N         -1.4552680503       -0.0003886890       -0.2027377788
 H         -0.7790705571       -1.2152047935        1.3233935308
 H         -1.2421747448       -2.0737928129       -0.1638936961
 H          1.2841385651       -2.0063615095        0.1997563690
 H          0.7766905042       -1.2157795199       -1.3210798150
 H          1.2830677231        2.0068950572        0.2001199848
 H          0.7761916037        1.2164383192       -1.3209590962
 H         -0.7799183239        1.2151539880        1.3232872983
 H         -1.2432158462        2.0731383065       -0.1642828455
 H         -1.5229132228       -0.0004163612       -1.2184203105
  15
  -20.1343747700000       0.445104137672803      !mtd8
 C         -0.7419295808       -1.1897011962       -0.2201818217
 C          0.7307421630       -1.1666693694        0.2092407136
 O          1.3788133546        0.0003153594       -0.2529010621
 C          0.7304091063        1.1672356104        0.2088700555
 C         -0.7425050565        1.1892675487       -0.2198549835
 N         -1.4521025098       -0.0004947170        0.2240519476
 H         -1.2399260216       -2.0739788625        0.1811834031
 H         -0.7979838195       -1.2147071097       -1.3121550363
 H          0.7954378449       -1.2156101904        1.3097527986
 H          1.2810364200       -2.0062764849       -0.2180997513
 H          0.7955753696        1.2166774463        1.3094130562
 H          1.2801436095        2.0069439480       -0.2190633745
 H         -1.2406514460        2.0730336822        0.1823492763
 H         -0.7991664939        1.2148875979       -1.3117409465
 H         -1.5045335520       -0.0006810991        1.2405695812
  15
  -20.1330397100000       0.108370365101497      !md3
 C         -0.7305020468       -1.1916738234        0.2453088222
 C          0.7200701726       -1.1589187404       -0.2391940955
 O          1.3830495351        0.0003605317        0.2112896393
 C          0.7196291720        1.1593630464       -0.2391440656
 C         -0.7310847740        1.1912288432        0.2451933073
 N         -1.3961944593       -0.0003939274       -0.2547932333
 H         -0.7344971688       -1.2418102271        1.3484845402
 H         -1.2342386400       -2.0745986811       -0.1522998141
 H          1.2826376652       -2.0064415400        0.1558670186
 H          0.7295367246       -1.1895700720       -1.3389011127
 H          1.2817600383        2.0071188229        0.1560320525
 H          0.7291651441        1.1901351667       -1.3388417595
 H         -0.7355191399        1.2416729533        1.3483283475
 H         -1.2349945859        2.0739035523       -0.1526956085
 H         -2.3747472709       -0.0006506441        0.0158990416
  15
  -20.1282168600000       6.583883499289334E-004 !mtd7
 C         -0.7823849409       -1.2053414347        0.1994634720
 C          0.7682722418       -1.1511897180        0.2365395497
 O          1.2363678952       -0.0094421166       -0.4486198305
 C          0.7762375172        1.1855749632        0.1461811059
 C         -0.7697075656        1.1724494772        0.2724817744
 N         -1.3362943373        0.0061642338       -0.3796263649
 H         -1.1837118251       -1.3006985755        1.2128014376
 H         -1.1294690089       -2.0545523048       -0.3900718607
 H          1.1345111811       -1.1347058831        1.2743824162
 H          1.2128770237       -2.0029118631       -0.2800254674
 H          1.2478971123        1.3159015084        1.1325771543
 H          1.1177281822        1.9830669928       -0.5158984722
 H         -1.0687256226        1.1360898721        1.3239626316
 H         -1.2027969568        2.0664007256       -0.1781742973
 H         -1.0936779076        0.0378345184       -1.3674605050
  15
  -20.1282167600000       6.583186833011439E-004 !mtd1
 C         -0.7907061253       -1.2087999045       -0.1483665358
 C          0.7553800933       -1.1504789168       -0.2695716293
 O          1.2564009248       -0.0078253197        0.3903156559
 C          0.7688648101        1.1866440303       -0.1837927189
 C         -0.7805693236        1.1680488897       -0.2503386438
 N         -1.3178721259        0.0102274377        0.4402707555
 H         -1.1024096994       -2.0494656263        0.4724602165
 H         -1.2450884777       -1.3219752042       -1.1373740152
 H          1.2296871954       -2.0016260776        0.2210710248
 H          1.0645846190       -1.1318390385       -1.3257506516
 H          1.1326516052        1.9840150673        0.4665460843
 H          1.2014970684        1.3209732796       -1.1874640498
 H         -1.1983932962        2.0678877388        0.2031141680
 H         -1.1198107034        1.1149815824       -1.2888532527
 H         -1.0320084865        0.0537870709        1.4159671158
  15
  -20.1249812400000       2.145330175901023E-005 !md7
 C         -0.6760950533       -1.1515288065        0.3570394151
 C          0.6811198022       -1.1359158555       -0.3478679663
 O          1.4406311280        0.0070466583        0.0036426658
 C          0.6510895635        1.1168750288        0.3905816018
 C         -0.6737177472        1.1675471605       -0.3611121372
 N         -1.4853304786        0.0093265420        0.0047125998
 H         -0.5101477447       -1.1371455059        1.4405014345
 H         -1.2143241443       -2.0675915463        0.1109785121
 H          1.2792219902       -2.0067882749       -0.0662018991
 H          0.5296820173       -1.1575312263       -1.4391127167
 H          0.4523681865        1.0831369331        1.4710186023
 H          1.2519826610        2.0034143373        0.1736772505
 H         -1.2222329067        2.0732312827       -0.0842952691
 H         -0.4590936312        1.2136160265       -1.4401404908
 H         -2.1247402850       -0.2097924298       -0.7502179115
  15
  -20.1249812300000       2.145307474246001E-005 !md7
 C         -0.6731569044       -1.1680154540       -0.3606806295
 C          0.6516703442       -1.1164128358        0.3909125129
 O          1.4407575197       -0.0064552070        0.0030561056
 C          0.6805085275        1.1363766254       -0.3475377316
 C         -0.6766916437        1.1510169929        0.3572656727
 N         -1.4854276142       -0.0099025017        0.0040506421
 H         -1.2212722094       -2.0737688876       -0.0834347369
 H         -0.4583865061       -1.2146552785       -1.4396185261
 H          0.4528719023       -1.0821961027        1.4714955841
 H          1.2529214232       -2.0028261177        0.1744144519
 H          1.2781047796        2.0075919699       -0.0656588715
 H          0.5287247541        1.1584588604       -1.4387402879
 H         -0.5109924344        1.1359085400        1.4407086387
 H         -1.2155301608        2.0668665821        0.1117173484
 H         -2.1235924708        0.2093671843       -0.7518831407
  15
  -20.1249812200000       2.145284772831210E-005 !mtd3
 C         -0.6769576284       -1.1670613937        0.3570082546
 C          0.6556654674       -1.1172870353       -0.3808631970
 O          1.4406893820       -0.0065989940        0.0127463131
 C          0.6766425045        1.1374854572        0.3516568744
 C         -0.6726378368        1.1498608743       -0.3682069349
 N         -1.4852906685       -0.0099371296       -0.0200315561
 H         -0.4736452658       -1.2102428403        1.4383020982
 H         -1.2221089940       -2.0736467167        0.0767823443
 H          1.2545128508       -2.0032048523       -0.1560396823
 H          0.4683294274       -1.0855906901       -1.4634633646
 H          0.5132164544        1.1626887814        1.4412039760
 H          1.2773327289        2.0077231278        0.0737104372
 H         -1.2139481484        2.0666047147       -0.1317750833
 H         -0.4948958901        1.1311144520       -1.4496921198
 H         -2.1313200101        0.2116762891        0.7285139319
  15
  -20.1249812100000       2.145262071664706E-005 !mtd11
 C         -0.6722908774       -1.1504186088       -0.3676018279
 C          0.6774304964       -1.1370484074        0.3515835225
 O          1.4406677128        0.0072439827        0.0124292149
 C          0.6551881931        1.1178323826       -0.3806071151
 C         -0.6775772166        1.1665366114        0.3570554668
 N         -1.4852053449        0.0093972122       -0.0205384112
 H         -1.2129861323       -2.0670019997       -0.1294964527
 H         -0.4952269022       -1.1332313755       -1.4491148258
 H          0.5143308778       -1.1624147987        1.4411380780
 H          1.2784378065       -2.0069991888        0.0733867602
 H          1.2537684054        2.0038971548       -0.1553900671
 H          0.4679375447        1.0865290018       -1.4632501950
 H         -0.4743921763        1.2095998529        1.4383386469
 H         -1.2231427308        2.0728814542        0.0770355143
 H         -2.1325491973       -0.2119246148        0.7270212548
