  15
        -20.13437481
 C         -0.7385967645       -1.1896758208        0.2307619358
 C          0.7277467536       -1.1667834423       -0.2196924289
 O          1.3824094350        0.0003326244        0.2328299465
 C          0.7272006259        1.1671054136       -0.2196096523
 C         -0.7392946914        1.1893581144        0.2306572714
 N         -1.4552680503       -0.0003886890       -0.2027377788
 H         -0.7790705571       -1.2152047935        1.3233935308
 H         -1.2421747448       -2.0737928129       -0.1638936961
 H          1.2841385651       -2.0063615095        0.1997563690
 H          0.7766905042       -1.2157795199       -1.3210798150
 H          1.2830677231        2.0068950572        0.2001199848
 H          0.7761916037        1.2164383192       -1.3209590962
 H         -0.7799183239        1.2151539880        1.3232872983
 H         -1.2432158462        2.0731383065       -0.1642828455
 H         -1.5229132228       -0.0004163612       -1.2184203105
  15
        -20.13303971
 C         -0.7305020468       -1.1916738234        0.2453088222
 C          0.7200701726       -1.1589187404       -0.2391940955
 O          1.3830495351        0.0003605317        0.2112896393
 C          0.7196291720        1.1593630464       -0.2391440656
 C         -0.7310847740        1.1912288432        0.2451933073
 N         -1.3961944593       -0.0003939274       -0.2547932333
 H         -0.7344971688       -1.2418102271        1.3484845402
 H         -1.2342386400       -2.0745986811       -0.1522998141
 H          1.2826376652       -2.0064415400        0.1558670186
 H          0.7295367246       -1.1895700720       -1.3389011127
 H          1.2817600383        2.0071188229        0.1560320525
 H          0.7291651441        1.1901351667       -1.3388417595
 H         -0.7355191399        1.2416729533        1.3483283475
 H         -1.2349945859        2.0739035523       -0.1526956085
 H         -2.3747472709       -0.0006506441        0.0158990416
  15
        -20.12821686
 C         -0.7823849409       -1.2053414347        0.1994634720
 C          0.7682722418       -1.1511897180        0.2365395497
 O          1.2363678952       -0.0094421166       -0.4486198305
 C          0.7762375172        1.1855749632        0.1461811059
 C         -0.7697075656        1.1724494772        0.2724817744
 N         -1.3362943373        0.0061642338       -0.3796263649
 H         -1.1837118251       -1.3006985755        1.2128014376
 H         -1.1294690089       -2.0545523048       -0.3900718607
 H          1.1345111811       -1.1347058831        1.2743824162
 H          1.2128770237       -2.0029118631       -0.2800254674
 H          1.2478971123        1.3159015084        1.1325771543
 H          1.1177281822        1.9830669928       -0.5158984722
 H         -1.0687256226        1.1360898721        1.3239626316
 H         -1.2027969568        2.0664007256       -0.1781742973
 H         -1.0936779076        0.0378345184       -1.3674605050
  15
        -20.12498124
 C         -0.6760950533       -1.1515288065        0.3570394151
 C          0.6811198022       -1.1359158555       -0.3478679663
 O          1.4406311280        0.0070466583        0.0036426658
 C          0.6510895635        1.1168750288        0.3905816018
 C         -0.6737177472        1.1675471605       -0.3611121372
 N         -1.4853304786        0.0093265420        0.0047125998
 H         -0.5101477447       -1.1371455059        1.4405014345
 H         -1.2143241443       -2.0675915463        0.1109785121
 H          1.2792219902       -2.0067882749       -0.0662018991
 H          0.5296820173       -1.1575312263       -1.4391127167
 H          0.4523681865        1.0831369331        1.4710186023
 H          1.2519826610        2.0034143373        0.1736772505
 H         -1.2222329067        2.0732312827       -0.0842952691
 H         -0.4590936312        1.2136160265       -1.4401404908
 H         -2.1247402850       -0.2097924298       -0.7502179115
