! wb97x-v def2-tzvp def2/J RIJCOSX DEFGRID2 scfconv7 GCP(DFT/TZ) printgap
%output
    printlevel normal
end
* xyz 0 1
C 2.23845223922345 -0.5598360287725616 0.5656669237663112
C 1.5354750947990181 -0.09076915270566698 -0.7062007637092975
C 0.55929320435407 1.065835079865883 -0.4803771606938227
C -0.5287258395168529 0.805885367032391 0.5541205257287736
S -1.6777622920986994 -0.5844036597988577 0.13389375032763529
H 2.746620062439926 0.27335593718012446 1.064408645612736
H 2.989120107040287 -1.3231175846722336 0.3375809784792841
H 1.536020760009547 -0.9982317431553852 1.2827909555844037
H 1.0075231056041296 -0.9344506789622026 -1.168183178368343
H 2.285295024517591 0.23469552235293345 -1.4367666516669593
H 0.09326438166793663 1.3444129535526002 -1.4327053122509048
H 1.1218064946496442 1.9435273427005821 -0.13066778854077948
H -0.10852663951015835 0.6158363485411691 1.5453261115251749
H -1.183671581769592 1.678049475594201 0.640740145508414
H -0.7789304186707128 -1.5815058323923747 0.2316732332893548
*
