! pbe def2-sv(p) def2/J RI DEFGRID1 loosescf d4 GCP(DFT/SV(P)) printgap
%output
    printlevel normal
end
* xyz 0 1
C -2.3235261479 0.4291438857 0.4917106561
C -0.9831153626 0.692952308 -0.18762014
C 0.062180339 -0.3916784801 0.1003532975
C 1.461152354 0.0156656661 -0.3765504176
C 2.1411964521 1.0289598486 0.5340490916
O -0.247758885 -1.6092566593 -0.5627365474
H -2.1903654395 0.3208024241 1.5661659401
H -3.0009893447 1.259947774 0.3121650627
H -2.7931380303 -0.4729968076 0.1063392925
H -1.1206974837 0.7558727565 -1.2691690397
H -0.5903519306 1.647942216 0.1609578287
H 0.1004520759 -0.5766783488 1.1872319602
H 2.0605695995 -0.8957915426 -0.4225359092
H 1.3838549645 0.409508759 -1.3913724815
H 1.5887114554 1.9643579023 0.5637578164
H 2.2162158983 0.64037633 1.5469409656
H 3.1435160348 1.2375111338 0.1701145951
H -1.1297500938 -1.8984557519 -0.2943068183
*
