! r2scan-3c def2/J RI DEFGRID2 scfconv6 printgap
%output
    printlevel normal
end
%cpcm
    smd true
    smdsolvent "water"
end
* xyz 0 1
C -3.6683088152 -0.3894970355 -0.9043631529
C -3.0079469407 -0.4309592877 0.4656108192
O -1.5890185453 -0.6141206429 0.3519620494
C -0.8270276366 0.4662379813 0.1962309063
O -1.2747172571 1.5995378013 0.1701689848
C 0.6099580008 0.1447352494 0.0730866602
C 1.5160498539 1.1940136757 -0.0740795283
C 2.8671190939 0.9302806078 -0.1921505123
C 3.3207105251 -0.3797354477 -0.1647673957
C 2.4227567203 -1.4265692689 -0.0194380794
C 1.069581886 -1.1710306598 0.0996571762
H -3.4269039358 -1.2893230127 -1.4637490237
H -4.7442240478 -0.3192624153 -0.7824813247
H -3.3180866377 0.4776841327 -1.4600163365
H -3.3494597919 -1.2894945323 1.044949086
H -3.1985317582 0.4975577921 1.0127827548
H 1.1356076962 2.2043620993 -0.0921820483
H 3.5657896346 1.7443567347 -0.3054354797
H 4.3759685719 -0.5850910549 -0.257123235
H 2.7795401473 -2.444459488 0.001105328
H 0.3622730644 -1.9768891365 0.2131497406
*
