! r2scan-3c def2/J RI DEFGRID2 scfconv6 printgap
%output
    printlevel normal
end
%cpcm
    smd true
    smdsolvent "water"
end
* xyz 0 1
C -2.2982637839 0.3602618266 -1.0417094745
C -1.8175600735 0.4119479918 0.411850077
C -0.4489907636 -0.2121981772 0.4959991923
O -0.2373529149 -1.3961792407 0.6589480345
O 0.5074871679 0.6941313542 0.3439986305
C 1.8758658252 0.2552261651 0.3189740283
C 2.3141731023 -0.0757107984 -1.0994865943
H -3.2945478172 0.7856446072 -1.1136054264
H -1.6268908201 0.9267266519 -1.6819645725
H -2.3296765288 -0.6693750317 -1.3903435061
H -2.4968712457 -0.1549056795 1.0473958435
H -1.7563725171 1.4454211162 0.748785278
H 2.443915047 1.0929734972 0.7247495104
H 1.9728408411 -0.620339049 0.9681092134
H 3.3648763537 -0.3464879117 -1.0975599571
H 1.7344976377 -0.9125028923 -1.4829304872
H 2.1662674331 0.7843121637 -1.7469572741
*
