  10
        -11.55270219
 C          1.8275557011       -0.1172811518        0.0000157271
 C          0.6034624523        0.3989890476       -0.0000357231
 C         -0.6034598027       -0.3989468148       -0.0000237928
 C         -1.8275594717        0.1172475862        0.0000172494
 H          2.7092554594        0.5002749131        0.0001030723
 H          1.9897284967       -1.1830412636        0.0001116433
 H          0.4640153178        1.4724821898        0.0000192570
 H         -0.4639605774       -1.4724857326       -0.0000870605
 H         -2.7092583206       -0.5003162945        0.0001317435
 H         -1.9897670173        1.1829829022        0.0000376114
