  26
        -44.37014770
 C          3.0666159338        0.1299040182        0.1831179865
 C          1.5838608175        0.4678618721        0.4191587669
 H          1.2516242623       -0.0508358981        1.3242676251
 C          0.7256520764        0.0054072669       -0.7851596483
 H          1.1234460226        0.4743466480       -1.6968586834
 C         -0.7599971730        0.4263479133       -0.6643424303
 H         -1.2787888086       -0.0178306485       -1.5251851834
 C         -1.4140998279       -0.0948881053        0.6406833612
 H         -0.9310673815        0.3827418470        1.4995638701
 C         -2.9147553733        0.2425896436        0.6614190849
 O         -3.6137419322       -0.5726737642       -0.2523847385
 O         -1.2502121836       -1.4921444293        0.7709270498
 O         -0.9251272176        1.8140640847       -0.7795910268
 O          0.8385198684       -1.3836053309       -0.9772021892
 O          1.4158715672        1.8520021602        0.6675597872
 O          3.3273095110       -1.2413025233        0.2042024964
 H          3.6637097366        0.5748575989        0.9851857162
 H          3.3823306763        0.5762962458       -0.7771880927
 H         -3.0599700394        1.3068960513        0.4557137021
 H         -3.3220960250        0.0032348233        1.6464716911
 H         -3.4840670099       -0.2256696453       -1.1416905941
 H         -2.0487998114       -1.8958112941        0.3942494400
 H         -0.3569677368        2.2246424614       -0.1074215416
 H          0.2908350763       -1.8072923186       -0.2911276422
 H          1.9445251204        2.3434073831        0.0268537892
 H          2.6938088650       -1.6682055031       -0.3959009232
