! r2scan-3c def2/J RI DEFGRID2 scfconv6 printgap
%output
    printlevel normal
end
* xyz 0 1
C 2.0364116961 1.4004574884 -0.5632119984
C 1.6190311363 0.2458115739 0.3413204138
C 0.4115435419 -0.5549168936 -0.1687637379
H 0.6635905601 -0.9193826206 -1.1729371871
C 0.2098791274 -1.773442429 0.7329384386
C -0.8632692773 0.3008051414 -0.3202920882
C -1.9618549092 -0.4630810695 -1.0619307821
C -1.4099733217 0.8280070417 1.0049712501
H 1.2974263203 2.1972675861 -0.5566638918
H 2.9812234237 1.8171838437 -0.2217417384
H 2.1642576496 1.0555382438 -1.5870656415
H 1.4119239883 0.6256047662 1.3432827104
H 2.4609439049 -0.4457876254 0.4276778824
H 1.1019445127 -2.3960535529 0.7171798076
H 0.0314006697 -1.4683387017 1.7606935094
H -0.6270229425 -2.3780278518 0.3962941642
H -0.5968186769 1.1617700972 -0.9422254859
H -2.3596888089 -1.2692885683 -0.4509994729
H -1.5798311035 -0.8861951771 -1.9883429274
H -2.7824717182 0.208070227 -1.3057003137
H -2.261171097 1.4790681214 0.8172118326
H -0.6591401601 1.4021715009 1.5407755249
H -1.744309721 0.0113493206 1.6392758852
*
