! r2scan-3c def2/J RI DEFGRID2 scfconv6 printgap
%output
    printlevel normal
end
%cpcm
    smd true
    smdsolvent "water"
end
* xyz 0 1
C -1.8236489735 0.9059348221 -0.5719905541
C -0.9438134709 0.6227827621 0.6411193059
C 0.0483787822 -0.5376973694 0.4724838578
H 0.5166960646 -0.6980371159 1.4505414533
C -0.6294714285 -1.8327270819 0.0334309362
C 1.180580607 -0.177067659 -0.4940204338
O 1.9261327329 0.8980767425 0.0445651172
H -2.4529688706 1.7695819874 -0.3705246856
H -1.2236482338 1.1256610134 -1.4510575396
H -2.4691615861 0.0602679119 -0.792288512
H -1.5862695637 0.4011685302 1.4962052695
H -0.3653011198 1.5167311485 0.8834589593
H -0.9819885041 -1.7552224344 -0.9915436873
H -1.4756669979 -2.0483987773 0.6801353578
H 0.0692080663 -2.6638919086 0.0912482218
H 0.7671211386 0.0960681552 -1.4730236477
H 1.8286640806 -1.0546908066 -0.6271009946
H 2.6333348491 1.1352863534 -0.5690174872
*
