  26
        -36.04545919
 C         -0.0000077926        2.5244333649       -0.0001548902
 C         -0.0000560531        1.1914184922       -0.0001126164
 C         -1.2548504159        0.4198483649        0.0453287138
 C         -2.3743187716        0.8237662426       -0.6775525349
 C         -3.5498259960        0.0983853689       -0.6173221729
 C         -3.6270778505       -1.0390154776        0.1688153956
 C         -2.5193565283       -1.4498709057        0.8917503143
 C         -1.3411686215       -0.7300460175        0.8276429344
 C          1.2547946636        0.4199011507       -0.0454335836
 C          2.3738747481        0.8234641116        0.6782429584
 C          3.5494468486        0.0981661802        0.6181771642
 C          3.6271459031       -1.0387659401       -0.1685934546
 C          2.5198302592       -1.4492014210       -0.8923994808
 C          1.3415614995       -0.7294985489       -0.8284179954
 H          0.9138370948        3.0910928361       -0.0536985601
 H         -0.9137711137        3.0912195342        0.0533950495
 H         -2.3133635116        1.7013269892       -1.3045834405
 H         -4.4089788626        0.4196695292       -1.1884568098
 H         -4.5460011491       -1.6047481658        0.2156447699
 H         -2.5739279500       -2.3362819206        1.5071006315
 H         -0.4796392234       -1.0510054494        1.3959242776
 H          2.3125231648        1.7006244370        1.3057958236
 H          4.4082742402        0.4191143950        1.1899850511
 H          4.5461111522       -1.6044383548       -0.2152991708
 H          2.5747301106       -2.3352691214       -1.5082067817
 H          0.4803026608       -1.0502018387       -1.3972522956
