  26
  -36.0454591900000       0.246578558278575      !md4
 C         -0.0000077926        2.5244333649       -0.0001548902
 C         -0.0000560531        1.1914184922       -0.0001126164
 C         -1.2548504159        0.4198483649        0.0453287138
 C         -2.3743187716        0.8237662426       -0.6775525349
 C         -3.5498259960        0.0983853689       -0.6173221729
 C         -3.6270778505       -1.0390154776        0.1688153956
 C         -2.5193565283       -1.4498709057        0.8917503143
 C         -1.3411686215       -0.7300460175        0.8276429344
 C          1.2547946636        0.4199011507       -0.0454335836
 C          2.3738747481        0.8234641116        0.6782429584
 C          3.5494468486        0.0981661802        0.6181771642
 C          3.6271459031       -1.0387659401       -0.1685934546
 C          2.5198302592       -1.4492014210       -0.8923994808
 C          1.3415614995       -0.7294985489       -0.8284179954
 H          0.9138370948        3.0910928361       -0.0536985601
 H         -0.9137711137        3.0912195342        0.0533950495
 H         -2.3133635116        1.7013269892       -1.3045834405
 H         -4.4089788626        0.4196695292       -1.1884568098
 H         -4.5460011491       -1.6047481658        0.2156447699
 H         -2.5739279500       -2.3362819206        1.5071006315
 H         -0.4796392234       -1.0510054494        1.3959242776
 H          2.3125231648        1.7006244370        1.3057958236
 H          4.4082742402        0.4191143950        1.1899850511
 H          4.5461111522       -1.6044383548       -0.2152991708
 H          2.5747301106       -2.3352691214       -1.5082067817
 H          0.4803026608       -1.0502018387       -1.3972522956
  26
  -36.0454591700000       0.246573339770197      !mtd11
 C         -0.0905298934        1.9703961837       -1.5751334327
 C         -0.0426208138        0.9298929307       -0.7432846343
 C         -1.2671371671        0.3441559731       -0.1693475775
 C         -2.3203865359        1.1507111810        0.2537557766
 C         -3.4694301656        0.5890014812        0.7789603654
 C         -3.5862697472       -0.7866881399        0.8859524916
 C         -2.5443689551       -1.5982609992        0.4684557138
 C         -1.3920900657       -1.0385902341       -0.0505744023
 C          1.2371495638        0.3111890267       -0.3543780424
 C          1.4439051387       -0.1011662205        0.9605007194
 C          2.6476041223       -0.6650469585        1.3393881353
 C          3.6605500928       -0.8350184308        0.4101197607
 C          3.4629236623       -0.4349857854       -0.9008313420
 C          2.2620615634        0.1354829128       -1.2804628123
 H          0.8029789634        2.4138820026       -1.9801156599
 H         -1.0248587595        2.4117451353       -1.8773409185
 H         -2.2267973821        2.2248626943        0.1869422112
 H         -4.2764507497        1.2270440908        1.1094328496
 H         -4.4844728708       -1.2246005996        1.2959969308
 H         -2.6301377899       -2.6722693602        0.5491872165
 H         -0.5822717773       -1.6746070965       -0.3790202682
 H          0.6566915169        0.0334541638        1.6887586063
 H          2.7962905460       -0.9748570357        2.3637246979
 H          4.5992768780       -1.2799824560        0.7058753369
 H          4.2474076825       -0.5713012848       -1.6313067590
 H          2.1061272896        0.4313496055       -2.3076605467
  26
  -36.0454591000000       0.246555075862452      !mtd2
 C         -0.0004454303        2.5241049494       -0.0042328928
 C         -0.0000967520        1.1911175132       -0.0020217253
 C         -1.2548366527        0.4194716024        0.0441138141
 C         -1.3424958115       -0.7269244335        0.8313584348
 C         -2.5209801326       -1.4460978025        0.8969743100
 C         -3.6273654924       -1.0384136867        0.1702278526
 C         -3.5486081408        0.0952368032       -0.6211738199
 C         -2.3729278928        0.8202649088       -0.6826116088
 C          1.2548331143        0.4196757589       -0.0456438549
 C          2.3734894607        0.8241851139        0.6781484798
 C          3.5492746986        0.0991057013        0.6192424179
 C          3.6275755211       -1.0384257799       -0.1666017385
 C          2.5205799876       -1.4499133162       -0.8903558453
 C          1.3420510303       -0.7305472225       -0.8273868920
 H          0.9132234355        3.0910180979       -0.0583275685
 H         -0.9144936405        3.0905721511        0.0479295159
 H         -0.4818680279       -1.0453804070        1.4024230449
 H         -2.5767909203       -2.3297138992        1.5162806181
 H         -4.5465007690       -1.6036892700        0.2182957526
 H         -4.4068158585        0.4140683641       -1.1951783779
 H         -2.3107497835        1.6951911814       -1.3132318006
 H          2.3116598457        1.7019655150        1.3047839165
 H          4.4077927589        0.4208137682        1.1910903026
 H          4.5467846649       -1.6037609778       -0.2126890064
 H          2.5761373419       -2.3363870403       -1.5055363341
 H          0.4810548137       -1.0518683924       -1.3962801722
  26
  -36.0454589800000       0.246523769452324      !mtd7
 C         -0.0003297687        2.5251690519       -0.0030630136
 C         -0.0001289169        1.1921884972       -0.0003625470
 C         -1.2456705095        0.4202590670        0.1563512800
 C         -1.4537050562       -0.7320789324       -0.5991236900
 C         -2.6265838904       -1.4524379855       -0.4740939269
 C         -3.6064647011       -1.0396818042        0.4136458928
 C         -3.4067476706        0.1000081763        1.1743952972
 C         -2.2370033582        0.8259489756        1.0459830035
 C          1.2458736228        0.4205278740       -0.1553871426
 C          1.4588802203       -0.7252399202        0.6084705158
 C          2.6317699024       -1.4456561327        0.4830487444
 C          3.6063064149       -1.0396189464       -0.4135587470
 C          3.4016817369        0.0938214167       -1.1824186526
 C          2.2322010579        0.8199754520       -1.0534207882
 H          0.9102753460        3.0917463590       -0.0974285900
 H         -0.9109713289        3.0920019284        0.0891820124
 H         -0.6924721866       -1.0544288092       -1.2953953446
 H         -2.7770749305       -2.3408337987       -1.0703281936
 H         -4.5207476494       -1.6059454242        0.5142679063
 H         -4.1649859524        0.4227371887        1.8733049548
 H         -2.0784987651        1.7053452560        1.6530587656
 H          0.7016852821       -1.0425303301        1.3114536354
 H          2.7861823290       -2.3289299921        1.0858456145
 H          4.5203129181       -1.6061656689       -0.5149632076
 H          4.1558478690        0.4112073056       -1.8881533464
 H          2.0695046435        1.6945175790       -1.6664001516
  26
  -36.0420573200000       6.738513503437010E-003 !gc
 C         -0.0574662467        2.3822058152        0.8359352623
 C          0.0209461677        1.1269086186        0.3973663667
 C         -1.2452251285        0.3719259518        0.2019905326
 C         -1.9420346671        0.4717743583       -0.9960411057
 C         -3.1315835396       -0.2125853819       -1.1721041938
 C         -3.6370168310       -1.0010354994       -0.1522736641
 C         -2.9483354951       -1.1034059430        1.0447279952
 C         -1.7578109499       -0.4210488180        1.2217046197
 C          1.2710978066        0.4221097134        0.0823506694
 C          2.5218206485        1.0264407310        0.2216720821
 C          3.6803518178        0.3412211427       -0.0878919308
 C          3.6216047678       -0.9654925067       -0.5436655968
 C          2.3895123645       -1.5798780792       -0.6867033900
 C          1.2290776958       -0.8954158791       -0.3786756182
 H          0.8018996738        3.0059233453        1.0067619818
 H         -1.0143274265        2.8313003268        1.0436227470
 H         -1.5444249923        1.0881267060       -1.7897664496
 H         -3.6661006172       -0.1293982150       -2.1073569210
 H         -4.5663248696       -1.5341885083       -0.2897611387
 H         -3.3403122716       -1.7163502757        1.8434665480
 H         -1.2174393575       -0.4995802592        2.1544117520
 H          2.5962917683        2.0430547535        0.5746042873
 H          4.6373261097        0.8299301744        0.0265913149
 H          4.5289441112       -1.4991011171       -0.7853375572
 H          2.3310598663       -2.5988634532       -1.0412607589
 H          0.2753891025       -1.3885602433       -0.4976452693
  26
  -36.0420473600000       6.667865085312159E-003 !gc
 C          0.2350919924        1.5302787420        1.9988832614
 C          0.0646373000        0.7269391658        0.9502071878
 C         -1.2370747291        0.2782689203        0.4368105409
 C         -1.2911378731       -0.6114761472       -0.6381781418
 C         -2.5018440177       -1.0505037592       -1.1395396155
 C         -3.6896235871       -0.6101518621       -0.5816985142
 C         -3.6531729246        0.2757781740        0.4824859548
 C         -2.4441723697        0.7149988980        0.9854704294
 C          1.2733219061        0.2367492082        0.2361311701
 C          1.8374743282        0.9891039689       -0.7866426940
 C          2.9726248453        0.5416058273       -1.4391602119
 C          3.5547714195       -0.6608842050       -1.0755007402
 C          2.9985993941       -1.4145062607       -0.0555202195
 C          1.8635736725       -0.9684764212        0.5977883159
 H          1.2244386596        1.8155735822        2.3154970145
 H         -0.5779174446        1.9283745209        2.5796364216
 H         -0.3732606513       -0.9637542443       -1.0855876307
 H         -2.5175778136       -1.7400523223       -1.9712478126
 H         -4.6362565392       -0.9524787082       -0.9729935675
 H         -4.5750766631        0.6273982999        0.9231384183
 H         -2.4443057793        1.4076696566        1.8124169195
 H          1.3800256413        1.9268066957       -1.0684665579
 H          3.4043064468        1.1332303734       -2.2334735387
 H          4.4407138155       -1.0099211306       -1.5854564891
 H          3.4505550012       -2.3527517857        0.2321963308
 H          1.4261153776       -1.5546380008        1.3935332848
  26
  -36.0392964600000       3.628780477024636E-004 !gc
 C          0.0292401847        2.4628980925        0.4050194862
 C          0.0063846301        1.1680529827        0.1146742749
 C         -1.2609779305        0.4011213384        0.1256574704
 C         -1.7816405551       -0.2038851970       -1.0118368456
 C         -2.9677810999       -0.9134155020       -0.9483076879
 C         -3.6472980093       -1.0331006912        0.2514271353
 C         -3.1393889495       -0.4290806385        1.3890445654
 C         -1.9572445457        0.2849959211        1.3254716237
 C          1.2587671503        0.4107665116       -0.1148109973
 C          2.1669071582        0.2949111131        0.9337942255
 C          3.3453751486       -0.4097766870        0.7720861478
 C          3.6368530257       -1.0047081778       -0.4436414408
 C          2.7450884765       -0.8851552417       -1.4953009868
 C          1.5630134060       -0.1846910268       -1.3329725679
 H          0.9508797409        3.0204150619        0.4246994553
 H         -0.8761825741        3.0133309560        0.5995893631
 H         -1.2735483514       -0.1044634514       -1.9586459879
 H         -3.3639002166       -1.3739159859       -1.8418913740
 H         -4.5706943215       -1.5913733429        0.2990202600
 H         -3.6661811946       -0.5141205142        2.3285267952
 H         -1.5586670030        0.7554482146        2.2129206610
 H          1.9372263269        0.7582718513        1.8826227741
 H          4.0383866908       -0.4946097134        1.5966335277
 H          4.5566647791       -1.5561063526       -0.5719622025
 H          2.9711780244       -1.3389155977       -2.4494722938
 H          0.8870363710       -0.0845691491       -2.1681627987
