  26
        -36.04545919
 C         -0.0000077926        2.5244333649       -0.0001548902
 C         -0.0000560531        1.1914184922       -0.0001126164
 C         -1.2548504159        0.4198483649        0.0453287138
 C         -2.3743187716        0.8237662426       -0.6775525349
 C         -3.5498259960        0.0983853689       -0.6173221729
 C         -3.6270778505       -1.0390154776        0.1688153956
 C         -2.5193565283       -1.4498709057        0.8917503143
 C         -1.3411686215       -0.7300460175        0.8276429344
 C          1.2547946636        0.4199011507       -0.0454335836
 C          2.3738747481        0.8234641116        0.6782429584
 C          3.5494468486        0.0981661802        0.6181771642
 C          3.6271459031       -1.0387659401       -0.1685934546
 C          2.5198302592       -1.4492014210       -0.8923994808
 C          1.3415614995       -0.7294985489       -0.8284179954
 H          0.9138370948        3.0910928361       -0.0536985601
 H         -0.9137711137        3.0912195342        0.0533950495
 H         -2.3133635116        1.7013269892       -1.3045834405
 H         -4.4089788626        0.4196695292       -1.1884568098
 H         -4.5460011491       -1.6047481658        0.2156447699
 H         -2.5739279500       -2.3362819206        1.5071006315
 H         -0.4796392234       -1.0510054494        1.3959242776
 H          2.3125231648        1.7006244370        1.3057958236
 H          4.4082742402        0.4191143950        1.1899850511
 H          4.5461111522       -1.6044383548       -0.2152991708
 H          2.5747301106       -2.3352691214       -1.5082067817
 H          0.4803026608       -1.0502018387       -1.3972522956
  26
        -36.04205732
 C         -0.0574662467        2.3822058152        0.8359352623
 C          0.0209461677        1.1269086186        0.3973663667
 C         -1.2452251285        0.3719259518        0.2019905326
 C         -1.9420346671        0.4717743583       -0.9960411057
 C         -3.1315835396       -0.2125853819       -1.1721041938
 C         -3.6370168310       -1.0010354994       -0.1522736641
 C         -2.9483354951       -1.1034059430        1.0447279952
 C         -1.7578109499       -0.4210488180        1.2217046197
 C          1.2710978066        0.4221097134        0.0823506694
 C          2.5218206485        1.0264407310        0.2216720821
 C          3.6803518178        0.3412211427       -0.0878919308
 C          3.6216047678       -0.9654925067       -0.5436655968
 C          2.3895123645       -1.5798780792       -0.6867033900
 C          1.2290776958       -0.8954158791       -0.3786756182
 H          0.8018996738        3.0059233453        1.0067619818
 H         -1.0143274265        2.8313003268        1.0436227470
 H         -1.5444249923        1.0881267060       -1.7897664496
 H         -3.6661006172       -0.1293982150       -2.1073569210
 H         -4.5663248696       -1.5341885083       -0.2897611387
 H         -3.3403122716       -1.7163502757        1.8434665480
 H         -1.2174393575       -0.4995802592        2.1544117520
 H          2.5962917683        2.0430547535        0.5746042873
 H          4.6373261097        0.8299301744        0.0265913149
 H          4.5289441112       -1.4991011171       -0.7853375572
 H          2.3310598663       -2.5988634532       -1.0412607589
 H          0.2753891025       -1.3885602433       -0.4976452693
  26
        -36.03929646
 C          0.0292401847        2.4628980925        0.4050194862
 C          0.0063846301        1.1680529827        0.1146742749
 C         -1.2609779305        0.4011213384        0.1256574704
 C         -1.7816405551       -0.2038851970       -1.0118368456
 C         -2.9677810999       -0.9134155020       -0.9483076879
 C         -3.6472980093       -1.0331006912        0.2514271353
 C         -3.1393889495       -0.4290806385        1.3890445654
 C         -1.9572445457        0.2849959211        1.3254716237
 C          1.2587671503        0.4107665116       -0.1148109973
 C          2.1669071582        0.2949111131        0.9337942255
 C          3.3453751486       -0.4097766870        0.7720861478
 C          3.6368530257       -1.0047081778       -0.4436414408
 C          2.7450884765       -0.8851552417       -1.4953009868
 C          1.5630134060       -0.1846910268       -1.3329725679
 H          0.9508797409        3.0204150619        0.4246994553
 H         -0.8761825741        3.0133309560        0.5995893631
 H         -1.2735483514       -0.1044634514       -1.9586459879
 H         -3.3639002166       -1.3739159859       -1.8418913740
 H         -4.5706943215       -1.5913733429        0.2990202600
 H         -3.6661811946       -0.5141205142        2.3285267952
 H         -1.5586670030        0.7554482146        2.2129206610
 H          1.9372263269        0.7582718513        1.8826227741
 H          4.0383866908       -0.4946097134        1.5966335277
 H          4.5566647791       -1.5561063526       -0.5719622025
 H          2.9711780244       -1.3389155977       -2.4494722938
 H          0.8870363710       -0.0845691491       -2.1681627987
