  14
        -20.76786290
 C          0.7331685945       -1.1601457066        0.2195082718
 C         -0.7333069988       -1.1600673944       -0.2195262885
 O         -1.3915692201        0.0001533792        0.2437588576
 C         -0.7330508135        1.1600687766       -0.2199568134
 C          0.7331521615        1.1599934900        0.2199424468
 O          1.3915840170        0.0000348326       -0.2437243541
 H          1.2677097436       -2.0099107469       -0.2066408367
 H          0.7842419170       -1.2032568913        1.3181697886
 H         -0.7843838916       -1.2032083461       -1.3181722248
 H         -1.2677453982       -2.0098807402        0.2065988413
 H         -0.7832631288        1.2024483330       -1.3186586002
 H         -1.2677454444        2.0101373402        0.2052631097
 H          1.2679644294        2.0099783193       -0.2053863626
 H          0.7834284816        1.2025025322        1.3186644825
  14
        -20.76015426
 C          0.6808798421       -1.1284077159        0.3425961763
 C         -0.6810244952       -1.1282087641       -0.3428267939
 O         -1.4531843923       -0.0000535951        0.0283086872
 C         -0.6672272668        1.1284409677        0.3684542644
 C          0.6673444759        1.1282279126       -0.3687720734
 O          1.4532044985       -0.0000108387       -0.0277601659
 H          1.2562318715       -2.0105794907        0.0516861709
 H          0.5403454245       -1.1433518731        1.4335860893
 H         -0.5404615941       -1.1425936564       -1.4338290887
 H         -1.2564523351       -2.0104954998       -0.0524127235
 H         -1.2533248745        2.0105613533        0.0996557186
 H         -0.4849152848        1.1436364364        1.4532449280
 H          0.4850671908        1.1427575741       -1.4535797932
 H          1.2535174831        2.0104635324       -0.1005230051
  14
        -20.75913413
 C          0.7381960229       -1.0975158399       -0.3479033455
 C         -0.7709855519       -1.2130778094       -0.0524906319
 O         -1.3007585970        0.0257788089        0.3721863483
 C         -0.7349071231        1.1056399210       -0.3289428516
 C          0.7713993631        1.2137520549       -0.0164586035
 O          1.2969877891       -0.0347048030        0.3843548047
 H          0.9108712499       -0.9439811959       -1.4246799812
 H          1.2663116093       -1.9975886640       -0.0317419422
 H         -1.3042512878       -1.5644099833       -0.9504905732
 H         -0.9594863492       -1.9052234421        0.7698632038
 H         -0.8971820991        0.9779412772       -1.4106814255
 H         -1.2660698871        1.9978935035        0.0036001448
 H          1.3131753789        1.5855792385       -0.9009824005
 H          0.9523644956        1.8866320566        0.8233195582
  14
        -20.75873466
 C          0.7775416679       -1.1698503858       -0.1806701079
 C         -0.7701536286       -1.1590115727       -0.2238814596
 O         -1.2719139361       -0.0021614194        0.3999955389
 C         -0.7736632883        1.1689442505       -0.2004732072
 C          0.7746706627        1.1589996192       -0.2092022630
 O          1.2633616448        0.0030746739        0.4266204970
 H          1.1887384251       -1.2619356823       -1.1991437938
 H          1.1531952346       -1.9910737779        0.4303044136
 H         -1.1260191274       -1.2055985163       -1.2659020860
 H         -1.1891844361       -1.9977279528        0.3325683381
 H         -1.1620675647        1.2566306734       -1.2282234100
 H         -1.1632635261        1.9923748117        0.3986044986
 H          1.1536412372        1.2055927273       -1.2430703701
 H          1.1806718460        1.9981814532        0.3561902650
  14
        -20.75852121
 C          0.6991943496       -1.0928165550        0.3689588134
 C         -0.7303567338       -1.2125868441       -0.1657092347
 O         -1.3944725207        0.0431171274       -0.2249648718
 C         -0.6920795716        1.0815903860        0.4126593189
 C          0.7274726151        1.2170233018       -0.1443351482
 O          1.3901958315       -0.0362521261       -0.2511220956
 H          1.2628010255       -1.9965091509        0.1316487422
 H          0.6905214329       -0.9642809010        1.4618804693
 H         -0.7142399605       -1.6080305034       -1.1868975226
 H         -1.3095563677       -1.8954104695        0.4710503422
 H         -1.2596584187        1.9916064736        0.2118527056
 H         -0.6633743905        0.9215857004        1.5010396532
 H          0.6926183710        1.6411358544       -1.1534851163
 H          1.3183602917        1.8818400146        0.5006362181
