  14
  -20.7678629000000       0.499738672031262      !md1
 C          0.7331685945       -1.1601457066        0.2195082718
 C         -0.7333069988       -1.1600673944       -0.2195262885
 O         -1.3915692201        0.0001533792        0.2437588576
 C         -0.7330508135        1.1600687766       -0.2199568134
 C          0.7331521615        1.1599934900        0.2199424468
 O          1.3915840170        0.0000348326       -0.2437243541
 H          1.2677097436       -2.0099107469       -0.2066408367
 H          0.7842419170       -1.2032568913        1.3181697886
 H         -0.7843838916       -1.2032083461       -1.3181722248
 H         -1.2677453982       -2.0098807402        0.2065988413
 H         -0.7832631288        1.2024483330       -1.3186586002
 H         -1.2677454444        2.0101373402        0.2052631097
 H          1.2679644294        2.0099783193       -0.2053863626
 H          0.7834284816        1.2025025322        1.3186644825
  14
  -20.7678628700000       0.499722807655220      !mtd8
 C          0.7303468887       -1.1599614457       -0.2285643885
 C         -0.7306560606       -1.1601558008        0.2284908380
 O         -1.3942214320       -0.0000006246       -0.2272437373
 C         -0.7303328738        1.1600385887        0.2284872489
 C          0.7306419705        1.1601084376       -0.2285093234
 O          1.3942230201       -0.0000236862        0.2273136070
 H          0.7678740526       -1.2024642063       -1.3278458861
 H          1.2698190115       -2.0099109385        0.1905762185
 H         -1.2704600600       -2.0099773334       -0.1908030246
 H         -0.7681685920       -1.2028242967        1.3278071079
 H         -1.2699668336        2.0099286564       -0.1907154351
 H         -0.7678379471        1.2026513225        1.3277811255
 H          0.7682496427        1.2027573529       -1.3276894976
 H          1.2704664134        2.0098704716        0.1909198279
  14
  -20.7601542600000       1.432508804719385E-004 !mtd1
 C          0.6808798421       -1.1284077159        0.3425961763
 C         -0.6810244952       -1.1282087641       -0.3428267939
 O         -1.4531843923       -0.0000535951        0.0283086872
 C         -0.6672272668        1.1284409677        0.3684542644
 C          0.6673444759        1.1282279126       -0.3687720734
 O          1.4532044985       -0.0000108387       -0.0277601659
 H          1.2562318715       -2.0105794907        0.0516861709
 H          0.5403454245       -1.1433518731        1.4335860893
 H         -0.5404615941       -1.1425936564       -1.4338290887
 H         -1.2564523351       -2.0104954998       -0.0524127235
 H         -1.2533248745        2.0105613533        0.0996557186
 H         -0.4849152848        1.1436364364        1.4532449280
 H          0.4850671908        1.1427575741       -1.4535797932
 H          1.2535174831        2.0104635324       -0.1005230051
  14
  -20.7601542500000       1.432493646064057E-004 !md5
 C          0.6672894502       -1.1284227335       -0.3685204462
 C         -0.6673962566       -1.1283457138        0.3684882333
 O         -1.4531294322        0.0001127938        0.0279881535
 C         -0.6809629788        1.1284215389       -0.3426438602
 C          0.6809910036        1.1283509389        0.3426242638
 O          1.4532050879       -0.0000896215       -0.0279306163
 H          0.4851437575       -1.1434051879       -1.4533427155
 H          1.2533502408       -2.0106106491       -0.0998064570
 H         -1.2535908553       -2.0104341821        0.0997733316
 H         -0.4852708920       -1.1433845344        1.4533036755
 H         -0.5404538920        1.1431777074       -1.4336559608
 H         -1.2564430128        2.0105968860       -0.0518553102
 H          1.2564286493        2.0104528429        0.0516778152
 H          0.5405738753        1.1431912486        1.4336096798
  14
  -20.7591341300000       4.867186772216308E-005 !md5
 C          0.7381960229       -1.0975158399       -0.3479033455
 C         -0.7709855519       -1.2130778094       -0.0524906319
 O         -1.3007585970        0.0257788089        0.3721863483
 C         -0.7349071231        1.1056399210       -0.3289428516
 C          0.7713993631        1.2137520549       -0.0164586035
 O          1.2969877891       -0.0347048030        0.3843548047
 H          0.9108712499       -0.9439811959       -1.4246799812
 H          1.2663116093       -1.9975886640       -0.0317419422
 H         -1.3042512878       -1.5644099833       -0.9504905732
 H         -0.9594863492       -1.9052234421        0.7698632038
 H         -0.8971820991        0.9779412772       -1.4106814255
 H         -1.2660698871        1.9978935035        0.0036001448
 H          1.3131753789        1.5855792385       -0.9009824005
 H          0.9523644956        1.8866320566        0.8233195582
  14
  -20.7591341100000       4.867083764677409E-005 !mtd3
 C          0.7349820661       -1.1057022841        0.3288213665
 C         -0.7714590186       -1.2136946434        0.0166584132
 O         -1.2968881568        0.0347179779       -0.3844859418
 C         -0.7383203473        1.0975712401        0.3477970791
 C          0.7709820397        1.2129792791        0.0527929872
 O          1.3007325116       -0.0257395064       -0.3723415951
 H          1.2661080995       -1.9978526116       -0.0039412411
 H          0.8975401984       -0.9781143358        1.4105132409
 H         -0.9525689964       -1.8869402053       -0.8228856569
 H         -1.3130910761       -1.5851765401        0.9015035198
 H         -1.2663647405        1.9976062277        0.0315278855
 H         -0.9110515109        0.9440050977        1.4245547971
 H          0.9596879836        1.9054456174       -0.7692085791
 H          1.3041806791        1.5639239168        0.9510053600
  14
  -20.7591341000000       4.867032261716313E-005 !md8
 C          0.7709549861       -1.2130974225        0.0527104914
 C         -0.7383740171       -1.0975444038        0.3477726699
 O         -1.2969742248       -0.0345684282       -0.3843702783
 C         -0.7713032647        1.2139224534        0.0164797000
 C          0.7350519757        1.1055258132        0.3290231825
 O          1.3006989317        0.0256487108       -0.3723511237
 H          0.9596997383       -1.9055600683       -0.7693828246
 H          1.3041397017       -1.5641128869        0.9510167144
 H         -1.2665021382       -1.9974767459        0.0312419468
 H         -0.9113157165       -0.9442839222        1.4246101964
 H         -0.9519820251        1.8867519039       -0.8235140033
 H         -1.3132652101        1.5859389393        0.9009195222
 H          1.2664656256        1.9978387545       -0.0033236704
 H          0.8973727223        0.9775504904        1.4108153179
  14
  -20.7591340800000       4.866929257429130E-005 !md4
 C          0.7711761179       -1.2140499313       -0.0154594208
 C         -0.7347782802       -1.1053888409       -0.3292932998
 O         -1.3011472873       -0.0257033428        0.3718012287
 C         -0.7707403046        1.2133894587       -0.0515551075
 C          0.7379925330        1.0971436488       -0.3485825552
 O          1.2974219606        0.0347552698        0.3837846405
 H          1.3134725600       -1.5879329678       -0.8988366228
 H          0.9506396204       -1.8856586601        0.8256651907
 H         -0.8959989867       -0.9774657042       -1.4112111260
 H         -1.2663108441       -1.9977133673        0.0025832293
 H         -1.3044907935        1.5666472188       -0.9485534236
 H         -0.9576060192        1.9044850081        0.7720876416
 H          0.9093306207        0.9427754771       -1.4254515230
 H          1.2666023448        1.9973002803       -0.0336979535
  14
  -20.7587346600000       3.189292202265475E-005 !gc
 C          0.7775416679       -1.1698503858       -0.1806701079
 C         -0.7701536286       -1.1590115727       -0.2238814596
 O         -1.2719139361       -0.0021614194        0.3999955389
 C         -0.7736632883        1.1689442505       -0.2004732072
 C          0.7746706627        1.1589996192       -0.2092022630
 O          1.2633616448        0.0030746739        0.4266204970
 H          1.1887384251       -1.2619356823       -1.1991437938
 H          1.1531952346       -1.9910737779        0.4303044136
 H         -1.1260191274       -1.2055985163       -1.2659020860
 H         -1.1891844361       -1.9977279528        0.3325683381
 H         -1.1620675647        1.2566306734       -1.2282234100
 H         -1.1632635261        1.9923748117        0.3986044986
 H          1.1536412372        1.2055927273       -1.2430703701
 H          1.1806718460        1.9981814532        0.3561902650
  14
  -20.7585212100000       2.544482585633862E-005 !md8
 C          0.6991943496       -1.0928165550        0.3689588134
 C         -0.7303567338       -1.2125868441       -0.1657092347
 O         -1.3944725207        0.0431171274       -0.2249648718
 C         -0.6920795716        1.0815903860        0.4126593189
 C          0.7274726151        1.2170233018       -0.1443351482
 O          1.3901958315       -0.0362521261       -0.2511220956
 H          1.2628010255       -1.9965091509        0.1316487422
 H          0.6905214329       -0.9642809010        1.4618804693
 H         -0.7142399605       -1.6080305034       -1.1868975226
 H         -1.3095563677       -1.8954104695        0.4710503422
 H         -1.2596584187        1.9916064736        0.2118527056
 H         -0.6633743905        0.9215857004        1.5010396532
 H          0.6926183710        1.6411358544       -1.1534851163
 H          1.3183602917        1.8818400146        0.5006362181
