! r2scan-3c def2/J RI DEFGRID2 scfconv6 printgap
%output
    printlevel normal
end
%cpcm
    smd true
    smdsolvent "water"
end
* xyz 0 1
C -1.5444178688 1.1065088757 -0.536282394
C -1.1518816681 0.422494703 0.7703773168
C -0.0677176291 -0.6589818199 0.6343574324
H -0.0614818751 -1.2280614013 1.5720793892
C -0.34823347 -1.6239962577 -0.5147795353
C 1.3491391698 -0.0712367769 0.5080468261
O 1.5561295252 0.6589206312 -0.6903454865
H -0.6652918371 1.4367209813 -1.0803557666
H -2.1029457992 0.426530857 -1.1736384895
H -2.1728074674 1.9694420583 -0.3279701327
H -2.0430862471 -0.0394412339 1.2022881498
H -0.8003017268 1.1741378721 1.4817124559
H 0.3248476607 -2.4764110728 -0.4589994248
H -0.1879020256 -1.1267136802 -1.4671668036
H -1.3719403763 -1.9861028848 -0.4677779831
H 2.0670251326 -0.9024841528 0.507702073
H 1.5544494632 0.5514876893 1.38301826
H 1.7681890372 1.5751165048 -0.4813402746
*
