  21
        -34.41374434
 C         -3.0340578630       -1.1545255357       -0.0001710229
 O         -2.5787965995        0.1806196441       -0.0004055260
 C         -1.2459662859        0.4555820937       -0.0000831659
 C         -0.9376898710        1.8190134476       -0.0001516640
 C          0.3650825912        2.2594626290        0.0001143628
 C          1.4138646215        1.3522995837        0.0004231524
 C          1.1284940453        0.0001534592        0.0004208207
 C         -0.1976050970       -0.4657233712        0.0002220376
 O         -0.4027073826       -1.8228249692        0.0002894269
 O          2.0684234019       -1.0118231926        0.0006371986
 C          3.4265777879       -0.6535933913       -0.0011237606
 H         -2.7022189642       -1.6936422225       -0.8896903276
 H         -4.1215839436       -1.0849931029       -0.0005637088
 H         -2.7027199336       -1.6931627776        0.8898379946
 H         -1.7630624835        2.5119373277       -0.0003839658
 H          0.5765724688        3.3172022246        0.0001853828
 H          2.4312004990        1.7068000015        0.0007613749
 H          0.4718119049       -2.2357748426        0.0005163233
 H          3.6900004712       -0.0792257537        0.8924144832
 H          3.6874540961       -0.0783235247       -0.8948192950
 H          3.9787673229       -1.5924389917       -0.0023683486
  21
        -34.41304013
 C         -3.5790973551        0.2070864929        0.0000610186
 O         -2.3842094556       -0.5313315625       -0.0001210925
 C         -1.1924894629        0.1646916361       -0.0000543205
 C         -1.0660885883        1.5454111176       -0.0000709661
 C          0.1976529937        2.1068355257        0.0000140888
 C          1.3322029699        1.3160406458        0.0000907159
 C          1.2207529091       -0.0695394327        0.0000716188
 C         -0.0547951893       -0.6483625730        0.0000115369
 O         -0.1769203519       -2.0038194209        0.0000107547
 O          2.2655999942       -0.9433545212        0.0001219549
 C          3.5693757846       -0.4213750471       -0.0001208996
 H         -3.6631385929        0.8335728405       -0.8935288274
 H         -3.6627917533        0.8336943610        0.8935954182
 H         -4.3810490726       -0.5298390723        0.0002651315
 H         -1.9346837348        2.1830808145       -0.0001561585
 H          0.3000467585        3.1810637737        0.0000187165
 H          2.3014216190        1.7869219127        0.0001726231
 H         -1.1221143236       -2.2080057117       -0.0000221234
 H          3.7638122581        0.1817552361       -0.8936327953
 H          4.2309138538       -1.2862951211       -0.0003179104
 H          3.7641980266        0.1816379416        0.8933882332
