! r2scan-3c def2/J RI DEFGRID2 scfconv6 printgap
%output
    printlevel normal
end
* xyz 0 1
C 1.5120767011 0.1708075769 -1.1940735802
C 1.1173387452 -0.2172947162 0.2295578158
H 0.9777034465 -1.3010114772 0.2898755254
C -0.1359035029 0.500703975 0.7552888732
C -1.5048788374 0.1148969328 0.1685607934
C -1.791681454 0.7676850698 -1.1831295202
C -1.7012795102 -1.397280023 0.0855570764
O 2.1988954034 0.0261681557 1.1229848993
H 0.8499470964 -0.2923265137 -1.917378984
H 1.4783124399 1.2503154501 -1.3228587294
H 2.5249003752 -0.1762520974 -1.3886619688
H -0.164342861 0.2963802494 1.8296957264
H 0.0037218182 1.5781650804 0.6305885575
H -2.2471039585 0.5074131794 0.8750278602
H -2.8321322834 0.604614071 -1.4557107534
H -1.1703915954 0.3482366144 -1.9677453211
H -1.6163511029 1.8397614386 -1.1374361563
H -1.0665806718 -1.8299672338 -0.6836319357
H -1.4648670837 -1.8675913317 1.0370564524
H -2.7354615435 -1.6246239938 -0.1622712081
H 2.4011068695 0.9722389994 1.11141951
*
