  18
        -20.88881917
 C         -2.2103161293        0.9190812002        0.1865870667
 C         -0.8502431202        0.6653035101       -0.4516626457
 C         -0.0339225593       -0.4151966895        0.2656803531
 H         -0.0650948023       -0.2153105412        1.3452904060
 C         -0.5829355606       -1.8157848026        0.0116662530
 C          1.4321064562       -0.3427235279       -0.1855636686
 O          2.0426724295        0.8909564482        0.1082121609
 H         -2.8391400292        0.0335902404        0.1370025930
 H         -2.0977088791        1.2020097587        1.2313983335
 H         -2.7226519898        1.7262942990       -0.3316207140
 H         -0.2722164540        1.5922684533       -0.4405145106
 H         -0.9846904920        0.3732729219       -1.4953805901
 H          0.0169308915       -2.5616329081        0.5291138920
 H         -0.5659419108       -2.0407105637       -1.0524603406
 H         -1.6064605163       -1.8983130654        0.3663190440
 H          1.4941139134       -0.4458149859       -1.2714758353
 H          1.9994848640       -1.1668979106        0.2727647435
 H          1.9750512742        1.0477941984        1.0569072286
  18
        -20.88837421
 C         -2.5266628391        0.5977176865        0.1254351712
 C         -1.1614144768        0.7506305041       -0.5351122747
 C         -0.0445415803        0.0200663299        0.2155621993
 H         -0.0332662953        0.3763262700        1.2546375497
 C         -0.2418462859       -1.4939672030        0.2194779256
 C          1.3151617095        0.3599802408       -0.4123811521
 O          2.4024196915       -0.1859205149        0.2951112221
 H         -2.8551511958       -0.4376926708        0.1072939997
 H         -2.4896691363        0.9306100462        1.1606523314
 H         -3.2665546912        1.1970890745       -0.4000292362
 H         -0.9119232501        1.8136879874       -0.5874594161
 H         -1.2082501497        0.3734320538       -1.5590029616
 H         -1.0798718504       -1.7804731772        0.8488207359
 H          0.6552759323       -1.9795453861        0.5971830775
 H         -0.4235333982       -1.8520847422       -0.7914936466
 H          1.4233722159        1.4525543855       -0.4918459845
 H          1.3797274253       -0.0650319068       -1.4166848450
 H          2.3643839272        0.1287898209        1.2053738584
  18
        -20.88821988
 C         -1.9754499052        1.4499784854        0.0718503381
 C         -1.4868723666        0.0828535325       -0.3943003421
 C         -0.1597976030       -0.3474142544        0.2399060923
 H         -0.2113155071       -0.1565560789        1.3203235162
 C          0.0812198125       -1.8400559240        0.0204611532
 C          1.0215739441        0.4511791969       -0.3273330071
 O          2.2426203124        0.1488817378        0.3068359968
 H         -2.0752367779        1.4706304689        1.1551810213
 H         -1.2893910354        2.2387300082       -0.2256723953
 H         -2.9477518084        1.6681214815       -0.3638241231
 H         -1.3786132083        0.0843893752       -1.4811005733
 H         -2.2444419398       -0.6618155699       -0.1393522140
 H          0.0216318008       -2.0770703164       -1.0395232304
 H         -0.6598002958       -2.4335620457        0.5509766831
 H          1.0710360462       -2.1155410654        0.3766077586
 H          0.8196360362        1.5289390638       -0.2550773123
 H          1.1711520218        0.1977551955       -1.3795592903
 H          2.1461987255        0.3172227974        1.2509188704
  18
        -20.88798311
 C         -1.3507702901        1.5957957658        0.1085488993
 C         -1.2942596426        0.1468015078       -0.3611818336
 C         -0.1384058907       -0.6533335646        0.2514665310
 H         -0.1652962429       -0.5249551874        1.3418436137
 C         -0.3055545743       -2.1386307866       -0.0672924985
 C          1.2341226766       -0.1803825283       -0.2505560180
 O          1.6403344657        1.0728783443        0.2456602401
 H         -0.4388424635        2.1211926160       -0.1592106425
 H         -2.1935329422        2.1060242188       -0.3525746319
 H         -1.4742646153        1.6422020912        1.1892218000
 H         -1.2020048738        0.1216153716       -1.4492551582
 H         -2.2334338824       -0.3473595122       -0.0984181894
 H         -1.2608708471       -2.5022434936        0.3035458719
 H          0.4859355778       -2.7264268785        0.3926223672
 H         -0.2711101707       -2.2989355641       -1.1426121680
 H          1.2188026091       -0.0712854534       -1.3375577916
 H          1.9880593998       -0.9409669528        0.0060027715
 H          1.6120897010        1.0450227952        1.2084377522
  18
        -20.88784587
 C         -1.7907110601        1.4458985477        0.3302904422
 C         -1.1468591231        0.3335200704       -0.4883591861
 C         -0.2440209564       -0.5843370811        0.3439007102
 H         -0.7496302185       -0.8266252575        1.2849976590
 C          0.0294574380       -1.8884743769       -0.4085066153
 C          1.0757913335        0.1141301490        0.7115979433
 O          1.8266599653        0.5338903165       -0.4009392290
 H         -1.0383603873        2.1153111035        0.7384247604
 H         -2.4600708971        2.0317940112       -0.2954060614
 H         -2.3676501229        1.0306180765        1.1544114985
 H         -0.5514162552        0.7735701501       -1.2910056115
 H         -1.9345463395       -0.2697968530       -0.9455857088
 H          0.7380836586       -2.5089196999        0.1377313304
 H          0.4295671744       -1.6883453275       -1.4014762663
 H         -0.8919978073       -2.4526656380       -0.5309254296
 H          1.6742967095       -0.5595458273        1.3442733581
 H          0.8740486798        1.0218713248        1.2832361129
 H          2.0247585863       -0.2392479565       -0.9405970491
  18
        -20.88780384
 C         -2.3569536711        0.7224278619       -0.0138250100
 C         -0.8434566656        0.8976785943       -0.0006497742
 C         -0.0903225045       -0.3308276035        0.5200845034
 H         -0.4348231575       -0.5533580448        1.5361405315
 C         -0.3272738500       -1.5630771688       -0.3547044316
 C          1.4125660216       -0.0185224696        0.6186270224
 O          2.0036312876        0.3256218781       -0.6098370389
 H         -2.6604633227       -0.0383700164       -0.7281617906
 H         -2.7159867417        0.4338624502        0.9721086909
 H         -2.8381999263        1.6570244662       -0.2925997669
 H         -0.5913834800        1.7484065505        0.6364220123
 H         -0.4904211172        1.1290661022       -1.0075879398
 H         -0.1525230033       -1.3344745140       -1.4050138314
 H         -1.3506978290       -1.9127533753       -0.2536992689
 H          0.3348585886       -2.3746636366       -0.0564490262
 H          1.9337669117       -0.8802315514        1.0640829489
 H          1.5702175847        0.8467597604        1.2671174024
 H          1.8719422878       -0.4066434460       -1.2222159551
  18
        -20.88778948
 C         -1.9439339472        1.4718941117        0.0744573776
 C         -1.4866836590        0.0885135510       -0.3738124549
 C         -0.1594000203       -0.3553852017        0.2517642251
 H         -0.1907247763       -0.1575348845        1.3287191939
 C          0.0457669551       -1.8558717457        0.0357389872
 C          1.0162543373        0.4379240011       -0.3379030785
 O          2.2348365175        0.2215948210        0.3317545100
 H         -2.9229327425        1.6950695380       -0.3436340818
 H         -2.0170419803        1.5149294669        1.1588004526
 H         -1.2535255524        2.2440302983       -0.2536689570
 H         -1.3926323338        0.0691223767       -1.4622869023
 H         -2.2562227192       -0.6360250003       -0.0974102255
 H         -0.7925399800       -2.4145855567        0.4454919802
 H          0.9493558086       -2.2080154121        0.5306550444
 H          0.1195614988       -2.0804012426       -1.0272576562
 H          0.8331304695        1.5094188247       -0.2423200321
 H          1.1172338672        0.1977608250       -1.4075656614
 H          2.4563241452       -0.7139642896        0.2721868556
  18
        -20.88777286
 C         -2.2579399912        0.8640610545        0.1915200701
 C         -0.8908973697        0.6683217977       -0.4542358382
 C         -0.0236544916       -0.3745356032        0.2624680641
 H         -0.0040205959       -0.1403902968        1.3326647103
 C         -0.5720578921       -1.7858827714        0.0714151204
 C          1.4250072254       -0.3163677401       -0.2490661399
 O          2.1339778268        0.8185890768        0.1844232301
 H         -2.7987478014        1.6637216578       -0.3098733429
 H         -2.8569713627       -0.0399794478        0.1260187063
 H         -2.1484722986        1.1299835975        1.2407505902
 H         -0.3746149080        1.6331313712       -0.4491310225
 H         -1.0194045459        0.3689838151       -1.4975856120
 H          0.0540100910       -2.5096854419        0.5877642175
 H         -0.5933915353       -2.0431737086       -0.9857588533
 H         -1.5799661993       -1.8673871551        0.4678661868
 H          1.4290722217       -0.3775113590       -1.3480947647
 H          1.9887417278       -1.1663309092        0.1426173604
 H          1.6706670390        1.6086770769       -0.1147780704
  18
        -20.88770576
 C         -2.5137314124        0.6627317899        0.1540153332
 C         -1.1623018404        0.7195401525       -0.5493729112
 C         -0.0462891199       -0.0008327788        0.2147759019
 H         -0.0325938082        0.3633009950        1.2478733474
 C         -0.2595677012       -1.5140657969        0.2287686868
 C          1.3107512955        0.3458306263       -0.4190352070
 O          2.4162781143       -0.0973493238        0.3287751139
 H         -3.2426661962        1.2595673215       -0.3892970071
 H         -2.8889806291       -0.3555757952        0.2102267729
 H         -2.4332554039        1.0573619397        1.1644550178
 H         -0.8786323424        1.7673007827       -0.6727861345
 H         -1.2517869154        0.2834667507       -1.5470618780
 H         -1.2143245356       -1.7630852313        0.6826970230
 H          0.5156210528       -2.0131912902        0.8082402151
 H         -0.2459723498       -1.9090612515       -0.7859637044
 H          1.4251660002        1.4310090051       -0.4775120150
 H          1.3501282058       -0.0594632680       -1.4417241174
 H          2.3728875622       -1.0570286974        0.4012226839
  18
        -20.88767911
 C         -2.3779241327        0.7597385655        0.0785371504
 C         -0.8722499225        0.8466249019       -0.1434844574
 C         -0.1082219575       -0.3301091069        0.4802788116
 H         -0.5045190213       -0.5048413088        1.4865409504
 C         -0.2575717270       -1.6037949613       -0.3476554366
 C          1.3826164896        0.0124433823        0.6410605990
 O          2.0435083576        0.2582948064       -0.5758644022
 H         -2.8733513945        1.6245930093       -0.3572297753
 H         -2.7908229069       -0.1340626724       -0.3816222613
 H         -2.6052541804        0.7343815539        1.1421373267
 H         -0.5116135967        1.7800452535        0.2993593316
 H         -0.6747278607        0.8820901890       -1.2179786286
 H         -1.3042684631       -1.8401795121       -0.5177419115
 H          0.2043598078       -2.4433135973        0.1664225977
 H          0.2358465012       -1.4806546687       -1.3091960440
 H          1.9095853023       -0.8335213584        1.0888656553
 H          1.4878019344        0.8780396092        1.3135884721
 H          1.6028486366        0.9922213651       -1.0177902134
  18
        -20.88751892
 C         -1.6652098079        1.5021374195        0.2981983291
 C         -1.2158937469        0.2478437264       -0.4444332316
 C         -0.2458022535       -0.6340758040        0.3535625938
 H         -0.7284666103       -0.9095382042        1.2978978734
 C          0.0761890883       -1.9036377901       -0.4328783210
 C          1.0595783949        0.0947295678        0.7146503821
 O          1.7880266734        0.5482223791       -0.3998992060
 H         -2.0877394501        1.2389667258        1.2656038777
 H         -0.8396697834        2.1907305945        0.4624040553
 H         -2.4273655897        2.0238974273       -0.2766327550
 H         -0.7596099214        0.5260299400       -1.3985816690
 H         -2.0980196863       -0.3525541954       -0.6790643087
 H          0.6465180221       -1.6527307364       -1.3243197943
 H         -0.8357697182       -2.4143607036       -0.7333447050
 H          0.6711346047       -2.5842313813        0.1712248738
 H          1.7270408641       -0.5989710207        1.2318542065
 H          0.8448673620        0.9290767297        1.3976714457
 H          1.2320630036        1.1596213916       -0.8952466536
  18
        -20.88734704
 C         -2.0192383537        0.8733714628       -0.6571508499
 C         -1.3532446417        0.5085276229        0.6648934049
 C         -0.0309542371       -0.2593803657        0.5348983326
 H          0.3541116458       -0.4053980575        1.5546713378
 C         -0.2108913077       -1.6369521650       -0.0981955354
 C          1.0234559194        0.5456693109       -0.2366231286
 O          2.3106870492       -0.0191481783       -0.1510199820
 H         -2.2491305329       -0.0150279382       -1.2384033421
 H         -2.9515695677        1.3996432010       -0.4640528202
 H         -1.3803547723        1.5223419320       -1.2498609514
 H         -2.0441938083       -0.1011423600        1.2521138592
 H         -1.1670620629        1.4266748994        1.2284631736
 H          0.7482367179       -2.1472581444       -0.1463436462
 H         -0.5947993430       -1.5491431852       -1.1107639205
 H         -0.9000591259       -2.2415233630        0.4871135145
 H          1.0380886072        1.5831041526        0.1316235252
 H          0.7909245065        0.5577246368       -1.3028974836
 H          2.5510301517       -0.0982710201        0.7790395753
  18
        -20.88723112
 C         -1.8020553549        0.9170729364       -0.5914187870
 C         -0.9512967491        0.6156535311        0.6369535147
 C          0.0355279322       -0.5497855174        0.4719616568
 H          0.4667548150       -0.7461612216        1.4641566392
 C         -0.6390502305       -1.8304567141       -0.0120610918
 C          1.1959587153       -0.1777841910       -0.4614483103
 O          1.9405310226        0.9275196793       -0.0078207957
 H         -2.4506009002        0.0801830771       -0.8365825997
 H         -2.4290529977        1.7842094934       -0.3960092641
 H         -1.1781859910        1.1412107990       -1.4522549167
 H         -1.6123719352        0.3932576587        1.4783203073
 H         -0.3754857895        1.5082868520        0.8920398018
 H         -1.5019090610       -2.0605341277        0.6083830775
 H          0.0544314842       -2.6671358295        0.0409040185
 H         -0.9667861600       -1.7283705136       -1.0429353694
 H          0.8205950007        0.1086576120       -1.4453393825
 H          1.8515811571       -1.0529591458       -0.5883411544
 H          2.2683726464        0.7342649617        0.8776195461
  18
        -20.88714602
 C         -1.3914129150        1.5951441623        0.0183514053
 C         -1.3732956368        0.0926581681       -0.2466979236
 C         -0.1168544729       -0.6273122115        0.2602316632
 H         -0.0298673922       -0.4695035995        1.3415480507
 C         -0.2498198232       -2.1264547725       -0.0035978786
 C          1.1729248125       -0.0895580307       -0.3846579630
 O          1.7716518632        0.9603145758        0.3367141425
 H         -2.3670440796        2.0048598626       -0.2353233805
 H         -1.2022513558        1.8036015897        1.0701262319
 H         -0.6522428951        2.1144090559       -0.5888123532
 H         -1.4723430955       -0.0837455676       -1.3207902092
 H         -2.2418055679       -0.3573754199        0.2401504348
 H         -0.2862914500       -2.3198260955       -1.0737898486
 H         -1.1614626309       -2.5134735233        0.4460116620
 H          0.5950987826       -2.6669437790        0.4156917552
 H          0.9720648939        0.2180616330       -1.4218953058
 H          1.9312206745       -0.8759649533       -0.4073521266
 H          1.1303945446        1.6720699983        0.4362548996
  18
        -20.88704190
 C         -2.0331242360        0.8448557531       -0.6463367340
 C         -1.3240016370        0.5488946771        0.6708323333
 C         -0.0184757221       -0.2464255600        0.5369695344
 H          0.3911653994       -0.3689452220        1.5468990322
 C         -0.2544107893       -1.6374661099       -0.0529930751
 C          1.0306407545        0.5256563085       -0.2771192838
 O          2.3371059561        0.0299033501       -0.1022340646
 H         -2.3036617892       -0.0732985686       -1.1605696275
 H         -2.9464039003        1.4033423147       -0.4531055940
 H         -1.4051342608        1.4413036136       -1.3025307692
 H         -2.0023146685       -0.0135007767        1.3171973761
 H         -1.1029211375        1.4940572083        1.1721830299
 H          0.6399753951       -2.2527261986        0.0323345144
 H         -0.5264220611       -1.5735667322       -1.1043426833
 H         -1.0557358684       -2.1423193536        0.4815383602
 H          1.0722870242        1.5641131136        0.0605072891
 H          0.7632684092        0.5156865038       -1.3432654586
 H          2.3530277408       -0.8920595356       -0.3809802900
  18
        -20.88689094
 C         -1.7034320466        0.9935359640       -0.6004789939
 C         -1.0039875882        0.5317154664        0.6744010265
 C          0.0379947098       -0.5828172471        0.4848438385
 H          0.4760326563       -0.7775465132        1.4708736424
 C         -0.5961303680       -1.8746582697       -0.0247166110
 C          1.1874527064       -0.1728204064       -0.4484039522
 O          1.9182914436        0.9405519611        0.0056496361
 H         -2.2369148399        0.1719796080       -1.0705571221
 H         -2.4260126786        1.7709229369       -0.3608581515
 H         -0.9977300380        1.4026598050       -1.3195490853
 H         -1.7591659966        0.1671405229        1.3749937971
 H         -0.5221523120        1.3909249584        1.1502252930
 H         -0.9467030102       -1.7575840076       -1.0471246393
 H         -1.4390557338       -2.1569948445        0.6015502943
 H          0.1300253570       -2.6838682092       -0.0083898074
 H          0.8020097965        0.0054883633       -1.4623484379
 H          1.9127348094       -0.9884762485       -0.5041971841
 H          1.3204333730        1.6936931018        0.0650762319
  18
        -20.88645198
 C         -1.5890496319        1.4750647787        0.2778032696
 C         -1.1220260686        0.2648207714       -0.5274233031
 C         -0.1235805931       -0.6206155903        0.2402352001
 H         -0.2643158675       -0.4556445255        1.3131625477
 C         -0.3565087783       -2.0990816115       -0.0635459328
 C          1.3314030683       -0.2660993694       -0.1053180373
 O          1.6894553481        1.0603871470        0.1929977314
 H         -2.2297659232        2.1113634556       -0.3296917312
 H         -2.1587095767        1.1490065150        1.1454703043
 H         -0.7505287077        2.0689554668        0.6335344232
 H         -0.6721526903        0.5947332539       -1.4686527467
 H         -1.9992208200       -0.3309310330       -0.7885069283
 H         -0.2424534780       -2.2898755473       -1.1288668930
 H         -1.3591954632       -2.3957134506        0.2346946279
 H          0.3579754842       -2.7185985586        0.4735273012
 H          1.5107053140       -0.4800651770       -1.1705783390
 H          2.0103637380       -0.8868409310        0.4847040173
 H          1.1414090427        1.6483730643       -0.3382762197
  18
        -20.88630661
 C         -2.2181988777        0.9027929751        0.1913212211
 C         -0.8474016248        0.6805686778       -0.4351941672
 C         -0.0237965999       -0.4012064784        0.2709082099
 H         -0.0069887720       -0.1785405952        1.3424488376
 C         -0.5964018210       -1.7983795923        0.0531121478
 C          1.4248281063       -0.3515525986       -0.2239096975
 O          2.0006615322        0.8806149912        0.1557356808
 H         -2.8448680975        0.0196041026        0.0950393091
 H         -2.1190077281        1.1422339747        1.2477051983
 H         -2.7244842198        1.7303480382       -0.3005355300
 H         -0.2807810142        1.6118038582       -0.3875431609
 H         -0.9657044410        0.4104757351       -1.4875801332
 H         -0.6282143997       -2.0338491436       -1.0089727112
 H         -1.6040045756       -1.8657955557        0.4523345088
 H          0.0164016244       -2.5460347156        0.5522320168
 H          1.4432361573       -0.4634978576       -1.3183152913
 H          1.9912373938       -1.1859837380        0.2155833081
 H          2.9083515680        0.9132176946       -0.1613492599
  18
        -20.88629210
 C         -1.4376425337        1.2288599195       -0.4940910783
 C         -1.2451383273        0.3396924589        0.7295262692
 C         -0.0903305519       -0.6673384005        0.6255539473
 H         -0.0833394162       -1.2393535481        1.5617833103
 C         -0.2863942878       -1.6560541247       -0.5239309988
 C          1.2887726322        0.0130041037        0.5483860030
 O          1.5737949999        0.6686917379       -0.6624092486
 H         -0.5152157810        1.7483653328       -0.7361592757
 H         -1.7506926250        0.6468355588       -1.3574661515
 H         -2.2090260790        1.9688586286       -0.2919464485
 H         -2.1680634373       -0.2155919462        0.9179873547
 H         -1.0618757554        0.9743820693        1.5998388198
 H          0.5222580539       -2.3853109077       -0.5397360959
 H         -0.3166521459       -1.1477418742       -1.4850111033
 H         -1.2248893429       -2.1909513009       -0.3988985546
 H          2.0624350989       -0.7446512664        0.7508595928
 H          1.3606405206        0.7840832651        1.3193200525
 H          1.5035787263        0.0266203104       -1.3772011875
  18
        -20.88590375
 C         -2.5150935418        0.6235257958        0.1541767456
 C         -1.1658610156        0.7331477297       -0.5463291689
 C         -0.0382076433        0.0206068644        0.2057624612
 H          0.0101602854        0.4057586862        1.2292403018
 C         -0.2430273256       -1.4907134367        0.2630235596
 C          1.3079821153        0.3309428283       -0.4556846056
 O          2.3461850037       -0.1642682836        0.3631684735
 H         -2.4444274438        0.9927169450        1.1748416477
 H         -3.2607250469        1.2142304647       -0.3733835375
 H         -2.8585239432       -0.4067314603        0.1827392225
 H         -0.9078583677        1.7905723283       -0.6471489352
 H         -1.2440682503        0.3159881420       -1.5533346560
 H         -0.3874903784       -1.8925932821       -0.7381377479
 H         -1.1067871224       -1.7446060810        0.8704209176
 H          0.6352628844       -1.9554226509        0.7025529934
 H          1.4140597288        1.4185808863       -0.5850061273
 H          1.3455315087       -0.1372709193       -1.4504685559
 H          3.1913458211        0.0143379981       -0.0601536198
  18
        -20.88584913
 C         -1.7686321509        1.3573864020        0.3011590656
 C         -1.0160681786        0.3707039916       -0.5849131815
 C         -0.1044765725       -0.5776823685        0.2183915426
 H         -0.2662417600       -0.3980728157        1.2888425466
 C         -0.4189274701       -2.0434297244       -0.0704305137
 C          1.3751133113       -0.3000418569       -0.0820028984
 O          1.7454483608        1.0392533551        0.1384229497
 H         -2.3851961990        0.8305051664        1.0272753952
 H         -1.0742661065        2.0007383363        0.8372663513
 H         -2.4168354953        1.9888461803       -0.3023745264
 H         -0.4090383770        0.9321049158       -1.2969075106
 H         -1.7389962441       -0.2148188059       -1.1553507876
 H         -0.2644281497       -2.2634133878       -1.1244393728
 H         -1.4531012464       -2.2650976971        0.1819199123
 H          0.2244711302       -2.6982684608        0.5137966610
 H          1.5841687901       -0.4894590625       -1.1378397183
 H          2.0046494530       -0.9742937558        0.5191781083
 H          1.5227526180        1.2716939615        1.0467512455
  18
        -20.88581158
 C         -1.9677407574        1.4554480019        0.0733694381
 C         -1.4918439509        0.0760063414       -0.3686769768
 C         -0.1513088083       -0.3420142752        0.2441091828
 H         -0.1600733717       -0.1210223605        1.3160105943
 C          0.0808331011       -1.8403417482        0.0600537273
 C          1.0156057696        0.4353455025       -0.3697933891
 O          2.1897961962        0.1414261804        0.3593382757
 H         -2.9530222970        1.6621445300       -0.3387017224
 H         -2.0330492162        1.5045247750        1.1579668808
 H         -1.2913541077        2.2362401091       -0.2646871800
 H         -1.4125644993        0.0476831957       -1.4582326651
 H         -2.2432891392       -0.6599817013       -0.0746147136
 H         -0.6755772294       -2.4132953410        0.5909128494
 H          1.0593557403       -2.1090778916        0.4477825755
 H          0.0383122223       -2.1034901686       -0.9952511493
 H          0.8120675692        1.5141390936       -0.3309744325
 H          1.1351384578        0.1445382174       -1.4242816562
 H          2.9276370706        0.6213511085       -0.0288168476
  18
        -20.88533821
 C         -2.2760054234        1.1522461822        0.2373387569
 C         -1.3163401392        0.3473886923       -0.6313201882
 C         -0.1143371679       -0.1935003593        0.1672748992
 H         -0.1947661906        0.1414835374        1.2064932514
 C         -0.0901133298       -1.7223709960        0.1603277689
 C          1.1974544420        0.3782482454       -0.3924886999
 O          2.3241589516        0.0917460317        0.3993794241
 H         -1.7675678682        2.0083497055        0.6748010199
 H         -3.1126148668        1.5164542679       -0.3548769928
 H         -2.6696827265        0.5367155357        1.0432456918
 H         -0.9611952251        0.9798681651       -1.4476699891
 H         -1.8592723542       -0.4848869957       -1.0826682575
 H          0.6989461162       -2.1088307352        0.8038820434
 H          0.0677416143       -2.0977848321       -0.8498120405
 H         -1.0357855562       -2.1127209166        0.5290601280
 H          1.1395273703        1.4691224410       -0.4193806708
 H          1.3466168064        0.0130609359       -1.4203995223
 H          2.4303462093       -0.8645068345        0.4458360454
  18
        -20.88522742
 C         -2.3554882791        0.7447559766        0.0039325245
 C         -0.8388300103        0.8832397209       -0.0363345229
 C         -0.0992933884       -0.3425398652        0.5099936549
 H         -0.4715133314       -0.5614559616        1.5178718574
 C         -0.2926294340       -1.5718336036       -0.3735763623
 C          1.3959810770       -0.0293579926        0.6398062889
 O          1.9236275633        0.2902087845       -0.6300520753
 H         -2.8236952420        1.6762064950       -0.3064057723
 H         -2.6978434989       -0.0418676288       -0.6628134431
 H         -2.6914348284        0.5125040563        1.0128127614
 H         -0.5504945246        1.7532663660        0.5589878115
 H         -0.5081143517        1.0588859958       -1.0604610843
 H          0.0900305047       -1.3681715668       -1.3698921622
 H         -1.3429665949       -1.8386616898       -0.4438394904
 H          0.2480678943       -2.4213886164        0.0384672147
 H          1.9159812216       -0.9035581100        1.0595678822
 H          1.5343995101        0.8147679933        1.3324347609
 H          2.8629433396        0.4752776400       -0.5393018825
  18
        -20.88514933
 C         -1.7661470904        1.4530486986        0.3198945691
 C         -1.1505973513        0.3160645449       -0.4873327121
 C         -0.2474609839       -0.6033090263        0.3420307055
 H         -0.7644025793       -0.8679985665        1.2719014526
 C          0.0691295165       -1.8800112646       -0.4342168466
 C          1.0582040433        0.0981730482        0.7327396244
 O          1.7508741457        0.4937922699       -0.4329218578
 H         -2.4508223167        2.0252571059       -0.3021065754
 H         -2.3217895393        1.0621455763        1.1704550441
 H         -1.0026343315        2.1318827498        0.6905605344
 H         -0.5617035255        0.7236358978       -1.3096524460
 H         -1.9554720920       -0.2857896960       -0.9148912358
 H          0.6161863905       -1.6295369736       -1.3389075686
 H         -0.8465856222       -2.3979208353       -0.7087529265
 H          0.6792969485       -2.5517146044        0.1658399058
 H          1.6737291075       -0.5961818396        1.3242431393
 H          0.8385669808        0.9725269573        1.3613840433
 H          2.5753727882        0.9164269612       -0.1759215474
  18
        -20.88507136
 C         -1.3737072420        1.5902910765        0.1166853057
 C         -1.3043212769        0.1429161937       -0.3533219037
 C         -0.1284052201       -0.6352791992        0.2482019421
 H         -0.1075744609       -0.4585702172        1.3279464310
 C         -0.3016480794       -2.1305903343       -0.0142863165
 C          1.2222776659       -0.1712549915       -0.3090151854
 O          1.6164007397        1.0337251201        0.3135211368
 H         -0.4517546229        2.1133386704       -0.1158808804
 H         -2.2027386724        2.1049543752       -0.3647499835
 H         -1.5206535364        1.6302996461        1.1934261482
 H         -1.2292434309        0.1137329235       -1.4434609090
 H         -2.2321231779       -0.3633833324       -0.0751373545
 H          0.5028237216       -2.7020526534        0.4431692325
 H         -0.2999707402       -2.3293139769       -1.0843613249
 H         -1.2450871977       -2.4801464538        0.3974532902
 H          1.1472929341       -0.0351047686       -1.3982830185
 H          1.9749941891       -0.9503294835       -0.1157484581
 H          2.4781551267        1.2941369941       -0.0262911061
  18
        -20.88506314
 C         -2.2249674041        1.1035149038        0.3021320719
 C         -1.0105331939        0.5886500758       -0.4624960875
 C         -0.1797352097       -0.4143456928        0.3646881659
 H         -0.6803114726       -0.5730365709        1.3252958603
 C         -0.0548481314       -1.7627014635       -0.3421901884
 C          1.2166849038        0.1434547332        0.6831533356
 O          2.0467419186        0.2717472479       -0.4444848013
 H         -2.7864805212        1.8108839932       -0.3045538366
 H         -2.8851260261        0.2809174463        0.5676607564
 H         -1.9164596481        1.6059148183        1.2165435111
 H         -0.3953862604        1.4474744124       -0.7466623029
 H         -1.3482286048        0.1148861072       -1.3862536895
 H          0.4697529413       -2.4737738828        0.2917603944
 H          0.5079225129       -1.6547855205       -1.2667061783
 H         -1.0381714888       -2.1652927229       -0.5736308198
 H          1.7458556973       -0.5387361515        1.3526617806
 H          1.1119028936        1.1140228005        1.1931687608
 H          1.5781917900        0.7865526596       -1.1116451849
  18
        -20.88503712
 C         -1.4635395480        1.2709895645       -0.4662595185
 C         -1.3256814781        0.2657790738        0.6740218601
 C         -0.1008758032       -0.6622980373        0.6146105102
 H         -0.1120280117       -1.2385468713        1.5475755835
 C         -0.1744617123       -1.6500919593       -0.5481099583
 C          1.2392757175        0.0976437169        0.5961978721
 O          1.6565088305        0.5364552211       -0.6718561329
 H         -2.4340376344        1.7598200880       -0.4046646360
 H         -0.7054572347        2.0497034530       -0.4020243923
 H         -1.3991956794        0.7814526582       -1.4350884666
 H         -2.2178501808       -0.3650003999        0.6925593343
 H         -1.2971772454        0.8144956179        1.6191558579
 H         -1.1149741526       -2.1955616271       -0.5242074773
 H          0.6436410855       -2.3629101249       -0.4799952201
 H         -0.0902895202       -1.1402183392       -1.5039821857
 H          2.0362102275       -0.5703341194        0.9335420087
 H          1.1847650331        0.9437450596        1.2988316807
 H          0.9626137883        1.0870293609       -1.0498172220
  18
        -20.88500699
 C         -2.0438115641        0.8356027382       -0.6456407876
 C         -1.3296977411        0.5414335342        0.6694312768
 C         -0.0141786957       -0.2347767329        0.5307931489
 H          0.4198163581       -0.3324656140        1.5320289639
 C         -0.2167849752       -1.6400797394       -0.0296181750
 C          1.0154413194        0.5265495583       -0.3083755025
 O          2.2873194487       -0.0435327652       -0.0742108579
 H         -2.9676977519        1.3755622774       -0.4494387487
 H         -1.4262019954        1.4482225895       -1.2973105820
 H         -2.2959398483       -0.0831729243       -1.1676238343
 H         -1.9981160582       -0.0364849168        1.3116475633
 H         -1.1246015238        1.4872854806        1.1772483263
 H          0.7356690314       -2.1629076501       -0.0429182652
 H         -0.6014415452       -1.6035885331       -1.0458608167
 H         -0.9144892310       -2.1998314341        0.5887310080
 H          1.0173094871        1.5879713825       -0.0178158314
 H          0.7603967259        0.4580746561       -1.3747814639
 H          2.9395174461        0.4100099523       -0.6169550521
  18
        -20.88477040
 C         -1.8154494030        0.9109935475       -0.5737825611
 C         -0.9415274474        0.6210634944        0.6415740823
 C          0.0491155478       -0.5396514123        0.4726540554
 H          0.5166146714       -0.7018431635        1.4500770175
 C         -0.6290922076       -1.8341925622        0.0333520711
 C          1.1809561526       -0.1790217585       -0.4931097014
 O          1.9155869849        0.9005527428        0.0452466566
 H         -2.4608055967        0.0672510156       -0.8044495630
 H         -2.4471315673        1.7732500870       -0.3714255588
 H         -1.2118836595        1.1367421189       -1.4490119342
 H         -1.5887973967        0.3973164750        1.4928065287
 H         -0.3621885726        1.5121363482        0.8881957085
 H          0.0686943346       -2.6669728476        0.0884961148
 H         -0.9842936958       -1.7577244046       -0.9912842568
 H         -1.4750772423       -2.0525338218        0.6802866663
 H          0.7704292783        0.0859875422       -1.4771886090
 H          1.8339803456       -1.0550005416       -0.6241445883
 H          2.6251518842        1.1308520879       -0.5621494496
  18
        -20.88428003
 C         -1.6422749652        1.0432661120       -0.5366468112
 C         -1.0766450684        0.4966101775        0.7733867052
 C         -0.0442277152       -0.6395393039        0.6367729977
 H         -0.0422081431       -1.1894548462        1.5856292903
 C         -0.3868611043       -1.6170892400       -0.4842651959
 C          1.3917774636       -0.1105828494        0.4681351935
 O          1.6049360849        0.6721591330       -0.6796835008
 H         -2.2565669283        1.9180293054       -0.3304413837
 H         -0.8620098692        1.3321442777       -1.2353657738
 H         -2.2692370115        0.3007893659       -1.0228026215
 H         -1.9152150281        0.1278249991        1.3690856608
 H         -0.6195911942        1.3130426925        1.3409646177
 H          0.2612525806       -2.4885962131       -0.4264233036
 H         -0.2383683272       -1.1493677621       -1.4534367112
 H         -1.4185723945       -1.9503961163       -0.4022228992
 H          2.0761317046       -0.9574219926        0.3703581717
 H          1.6743447120        0.4538511067        1.3701768240
 H          1.0858835553        1.4789381580       -0.5935382225
  18
        -20.88330825
 C         -1.4863053185        1.1696696283       -0.5187860694
 C         -1.2059789281        0.3789425531        0.7537154251
 C         -0.0806645011       -0.6590290382        0.6338689802
 H         -0.0812697224       -1.2364644677        1.5675809449
 C         -0.2976711354       -1.6197348632       -0.5321337786
 C          1.3117790646       -0.0195341042        0.5463098771
 O          1.5071053287        0.6207491773       -0.6970214661
 H         -0.5706911338        1.6085251884       -0.9014281432
 H         -1.9090456675        0.5284343328       -1.2872400492
 H         -2.1987067593        1.9654731604       -0.3103348129
 H         -2.1180524346       -0.1423209074        1.0567079561
 H         -0.9459114156        1.0735278121        1.5568395537
 H          0.4129180193       -2.4419236023       -0.4793970104
 H         -0.1502563485       -1.0989746478       -1.4729230823
 H         -1.3042481477       -2.0295404963       -0.5034382538
 H          2.0658148384       -0.8102125793        0.6800615962
 H          1.4292307700        0.7034318096        1.3679292282
 H          2.4062891146        0.9601734256       -0.7321222760
