  20
        -22.41265244
 C         -2.3809587958       -0.0001337446        0.0011032009
 N         -0.9645395557       -0.0001031231        0.2867332121
 C         -0.3141829150        1.1929544707       -0.2230003493
 C          1.1391134244        1.2396855361        0.2375295614
 C          1.8808689172        0.0001638701       -0.2493169027
 C          1.1394969290       -1.2395657903        0.2375083099
 C         -0.3138426271       -1.1929730617       -0.2229927084
 H         -2.8354832176        0.8842963442        0.4460339672
 H         -2.8351060147       -0.8849231403        0.4455739635
 H         -2.6004617712       -0.0000697461       -1.0796721302
 H         -0.3515980553        1.2298471280       -1.3291265060
 H         -0.8520774629        2.0640563957        0.1609793235
 H          1.6132814221        2.1466516630       -0.1420166637
 H          1.1599829762        1.2687802590        1.3279604285
 H          1.9162478697        0.0001707073       -1.3418659529
 H          2.9075462583        0.0002558636        0.1214786587
 H          1.6139108776       -2.1463956631       -0.1420987348
 H          1.1604042402       -1.2686659139        1.3279471344
 H         -0.3513097016       -1.2299340786       -1.3291196746
 H         -0.8514972013       -2.0642011736        0.1610235514
  20
        -22.41177492
 C         -1.9231543470       -0.0001863007       -0.7208275196
 N         -1.0830451432       -0.0001057181        0.4562232847
 C         -0.2717567903        1.1934032259        0.6028493363
 C          0.9319887553        1.2488718176       -0.3468866143
 C          1.7905200919        0.0001781304       -0.1600369319
 C          0.9322104815       -1.2486695369       -0.3469049180
 C         -0.2715425082       -1.1934748455        0.6028379208
 H         -1.3763991189        0.0000956581       -1.6744104214
 H         -2.5605733693        0.8833698877       -0.6928389593
 H         -2.5600769653       -0.8841427486       -0.6930498653
 H         -0.9130360613        2.0656668328        0.4547683519
 H          0.0909219999        1.2104764612        1.6364742541
 H          0.5833223818        1.3044740063       -1.3803958218
 H          1.5161839704        2.1476678463       -0.1420209396
 H          2.6212160088        0.0002693854       -0.8697746307
 H          2.2104134069        0.0001976413        0.8493786669
 H          0.5835333133       -1.3043085781       -1.3804073922
 H          1.5165622687       -2.1473714146       -0.1420730949
 H         -0.9126569301       -2.0658660380        0.4547534037
 H          0.0911826920       -1.2105194925        1.6364480159
  20
        -22.40462158
 C         -2.3351343710       -0.0271319442       -0.2155561165
 N         -0.8938024962       -0.0276157826       -0.2734381598
 C         -0.3463396121        1.2569913138        0.1313154425
 C          1.1741090234        1.1754375743        0.3120608262
 C          1.7179142127        0.0197404900       -0.5178500548
 C          1.1672256141       -1.2952908693        0.0365351680
 C         -0.2926616359       -1.1109887296        0.4794642840
 H         -2.7137824023        0.7801496785       -0.8421504056
 H         -2.7257831061        0.1152446992        0.8065034574
 H         -2.7113450428       -0.9730309782       -0.6032402052
 H         -0.5952194183        1.9742936416       -0.6574469251
 H         -0.8130123799        1.6142944356        1.0687493542
 H          1.6323973920        2.1184227581        0.0115990880
 H          1.4223335201        1.0055322199        1.3619352090
 H          1.3916868287        0.1456444528       -1.5504325983
 H          2.8087023414        0.0098565407       -0.4993022171
 H          1.2315606488       -2.0670426853       -0.7309406518
 H          1.7643730982       -1.6219536412        0.8898556912
 H         -0.8596194957       -2.0240175409        0.2853721710
 H         -0.3423342478       -0.9171538498        1.5665979573
  20
        -22.40402078
 C         -2.2533705732       -0.1523177010       -0.3681639167
 N         -1.0439003594        0.0932794636        0.3818782455
 C         -0.2928523402        1.2062845900       -0.1825882066
 C          1.1441408352        1.1969726413        0.3204069920
 C          1.8914970044       -0.0243625731       -0.2301655939
 C          0.9259244641       -1.2005945616       -0.4220289304
 C         -0.2214778772       -1.0947238619        0.5832442956
 H         -2.0678593686       -0.4744854747       -1.4064405015
 H         -2.8376323786        0.7674534364       -0.3978986665
 H         -2.8421281178       -0.9174239030        0.1359706664
 H         -0.2862480118        1.1758963988       -1.2870896109
 H         -0.7964731196        2.1315903678        0.1186932782
 H          1.6458408586        2.1161819043        0.0149535147
 H          1.1273409332        1.1726088692        1.4104384647
 H          2.3580268160        0.2234378712       -1.1856878373
 H          2.6880077984       -0.3032003291        0.4616910486
 H          0.5099321072       -1.1868636434       -1.4318895590
 H          1.4473271451       -2.1500673862       -0.2945189426
 H         -0.8603759699       -1.9781342538        0.5246340089
 H          0.1941584931       -1.0541083631        1.5968748119
