  28
        -29.74388306
 C         -4.6265325547        0.1896333710        0.1763582774
 C         -3.1899405644        0.3303499405       -0.3101295601
 C         -2.3363704566       -0.8735084458        0.0785838395
 C         -0.8750963511       -0.6894194025       -0.3280090053
 N         -0.3037623913        0.4512973771        0.3622966414
 C          1.0109540507        0.8606132701       -0.0831169199
 C          2.1527950469       -0.1258635409        0.2054054796
 C          3.5067586973        0.4377271426       -0.2151312257
 C          4.6413464081       -0.5400932297        0.0663028422
 H         -5.2168095645        1.0544383446       -0.1174079857
 H         -5.0886497605       -0.7004902261       -0.2463011711
 H         -4.6567631597        0.1068823735        1.2607557639
 H         -3.1823254786        0.4379110061       -1.3967763817
 H         -2.7373181426        1.2264714495        0.1156254166
 H         -2.3894244492       -1.0193815934        1.1603862848
 H         -2.7270982449       -1.7747952945       -0.3990619380
 H         -0.8184071808       -0.4836274414       -1.4013109128
 H         -0.3297225275       -1.6299618807       -0.1355080698
 H         -0.2902936785        0.2728516278        1.3623968007
 H          0.9517044976        1.0442932497       -1.1601674659
 H          1.2332304960        1.8139540524        0.4074920046
 H          1.9717266368       -1.0611118757       -0.3289934322
 H          2.1688726414       -0.3497535909        1.2761452135
 H          3.6904445278        1.3716439746        0.3213130058
 H          3.4829294225        0.6694238766       -1.2824253594
 H          4.6926945392       -0.7697173324        1.1285848220
 H          4.4874274683       -1.4700607481       -0.4770236778
 H          5.5957761176       -0.1180155782       -0.2397598251
