! r2scan-3c def2/J RI DEFGRID2 scfconv6 printgap
%output
    printlevel normal
end
%cpcm
    smd true
    smdsolvent "water"
end
* xyz 0 1
C 5.4388686397 -0.0216717271 -0.864529648
C 4.5046513754 -0.5811820546 0.2091923508
C 3.2259482944 0.2304732674 0.2606801107
O 3.235176865 1.4386837219 0.4338199514
N 2.0921714516 -0.5060736897 0.096690233
C 0.7654889676 -0.0839750367 0.095386044
C 0.3857239278 1.2491642512 0.2444039769
C -0.9509421077 1.5965580857 0.2319024073
C -1.9285975842 0.6275758348 0.0714044284
C -1.5558739631 -0.7028823472 -0.0778897532
C -0.2208339621 -1.0588911958 -0.0665868353
Cl -2.7641624744 -1.9292711489 -0.2784805247
Cl -3.60513283 1.0752918594 0.0570994719
H 5.0111741327 -0.1620931363 -1.8541245957
H 6.4016684862 -0.522323474 -0.824641471
H 5.5880080489 1.0431758525 -0.7031508282
H 4.9875943018 -0.483332998 1.183436904
H 4.301513836 -1.6338654921 0.0217230871
H 2.2114107771 -1.5023427229 -0.0373767366
H 1.140033222 2.0075043139 0.3696795196
H -1.2432172511 2.6270716872 0.3462289909
H 0.0429375702 -2.0974392657 -0.1837355065
*
