! pbe def2-sv(p) def2/J RI DEFGRID1 loosescf d4 GCP(DFT/SV(P)) printgap
%output
    printlevel normal
end
* xyz 0 1
C 1.781938945 0.5402725858 -1.1173487693
C 1.0710884277 -0.1721557297 0.0325376823
H 0.701665168 -1.142082845 -0.3135371933
C -0.0908880845 0.6622437204 0.6071138569
C -1.5002538747 0.2795713663 0.1292507072
C -1.6504458608 0.365874789 -1.3877612237
C -1.9150960056 -1.1025076777 0.6313148588
O 2.0003844856 -0.5173427973 1.0514933152
H 2.6108547252 -0.0687086976 -1.4713033448
H 1.0965562156 0.7128149181 -1.9400003204
H 2.1726754541 1.4991732397 -0.7813843194
H -0.0695166059 0.5468702317 1.6938672447
H 0.0816544661 1.7169291276 0.3804672355
H -2.1840735121 1.012168023 0.5752798883
H -1.0426490491 -0.3887836846 -1.8801375583
H -1.3527100528 1.3478078668 -1.7474917202
H -2.6880267351 0.2000425369 -1.6685421058
H -2.9464817436 -1.307884928 0.35458772
H -1.2883538786 -1.8803579024 0.2025572467
H -1.8314649092 -1.1571441046 1.7141333454
H 2.4381204005 0.289530672 1.3569541505
*
