  14
  -24.4753107900000       0.500002645487323      !mtd2
 C         -0.3376104916       -1.2063010593       -0.0000190927
 C          1.0417068605       -1.2031748530       -0.0000149821
 C          1.7405087266        0.0018425639        0.0000010063
 C          1.0405279448        1.2087485763       -0.0000139999
 C         -0.3360789197        1.2092780679       -0.0000181209
 C         -1.0367874913        0.0005890300       -0.0000079650
 C         -2.4487207133       -0.0013559420        0.0000138941
 N         -3.5955996703       -0.0053214392        0.0000216446
 O          3.0925312592        0.0508496663        0.0000270535
 H         -0.8805689504       -2.1396915023       -0.0000326244
 H          1.5851416230       -2.1388066626       -0.0000202126
 H          1.6004132681        2.1300871457       -0.0000176900
 H         -0.8809783130        2.1413154184       -0.0000277410
 H          3.4623811769       -0.8408564236        0.0000742231
  14
  -24.4753107800000       0.499997354512677      !hor
 C         -0.3247469683       -1.2123047651        0.0000243155
 C          1.0517860049       -1.1988610264        0.0000076062
 C          1.7404495387        0.0145588436       -0.0000092775
 C          1.0304198656        1.2129717554        0.0000081945
 C         -0.3488767683        1.2031554520        0.0000258139
 C         -1.0367324373       -0.0102169227        0.0000229045
 C         -2.4486290356       -0.0215782815        0.0000303880
 N         -3.5955000651       -0.0288646114       -0.0000540579
 O          3.0928597825       -0.0218371524       -0.0000381854
 H         -0.8608946781       -2.1494026745        0.0000431262
 H          1.6203151675       -2.1148931550        0.0000088273
 H          1.5650362624        2.1536634966        0.0000070653
 H         -0.9005527912        2.1314204412        0.0000419197
 H          3.4544045935        0.8732625409       -0.0000537454
