  14
        -24.47531079
 C         -0.3376104916       -1.2063010593       -0.0000190927
 C          1.0417068605       -1.2031748530       -0.0000149821
 C          1.7405087266        0.0018425639        0.0000010063
 C          1.0405279448        1.2087485763       -0.0000139999
 C         -0.3360789197        1.2092780679       -0.0000181209
 C         -1.0367874913        0.0005890300       -0.0000079650
 C         -2.4487207133       -0.0013559420        0.0000138941
 N         -3.5955996703       -0.0053214392        0.0000216446
 O          3.0925312592        0.0508496663        0.0000270535
 H         -0.8805689504       -2.1396915023       -0.0000326244
 H          1.5851416230       -2.1388066626       -0.0000202126
 H          1.6004132681        2.1300871457       -0.0000176900
 H         -0.8809783130        2.1413154184       -0.0000277410
 H          3.4623811769       -0.8408564236        0.0000742231
