  27
        -44.49390937
 C          2.9882842640        1.8517346020        0.2771202072
 C          1.6905585900        1.1451014081        0.0949523512
 C          1.5196266857       -0.1899110317       -0.0008478155
 C          0.2016652022       -0.7877000432       -0.2111233416
 O          0.0550483445       -1.9408067157       -0.5431371969
 N         -0.8750971701        0.0861867952        0.0071873085
 C         -0.7241847588        1.4467952555       -0.1670491401
 O         -1.6025455850        2.2343824146       -0.4282075482
 N          0.5685312709        1.9180614229       -0.0193554092
 C         -2.2464315102       -0.4904525264        0.1684162658
 C         -2.1681599463       -1.7684920307        1.0123101327
 C         -3.1496891126        0.4803846897        0.9361576643
 C         -2.8178699209       -0.7805471480       -1.2179837873
 Cl         2.8373955873       -1.2984947982        0.0477818386
 H          3.2009371312        2.4754123102       -0.5903724591
 H          3.7901550952        1.1311420745        0.3999087938
 H          2.9435564865        2.4938368731        1.1554888775
 H          0.6621875465        2.9217824321       -0.1041559897
 H         -1.6773621193       -2.5772704854        0.4831461659
 H         -1.6281599361       -1.5769399906        1.9375151244
 H         -3.1772756519       -2.0854390560        1.2606330150
 H         -2.6708648287        0.7940476919        1.8614802110
 H         -4.0758633960       -0.0310435645        1.1838752736
 H         -3.3900609550        1.3617006082        0.3530649676
 H         -3.8141558619       -1.2038253241       -1.1263904749
 H         -2.8786288050        0.1400095619       -1.7939149989
 H         -2.1817834305       -1.4893468772       -1.7420598266
  27
        -44.49359624
 C          3.0487804786        1.6859121284        0.4910586585
 C          1.7064035474        1.0882762366        0.2489986980
 C          1.5019701250       -0.1798222580       -0.1681104060
 C          0.1660134925       -0.7113909198       -0.4151674428
 O         -0.0279701118       -1.7493402193       -1.0042767618
 N         -0.8758309637        0.0834448983        0.0931068128
 C         -0.7121911684        1.4428977468        0.2580810782
 O         -1.5904539305        2.2725606908        0.2725318335
 N          0.5978668665        1.8644434495        0.4232555152
 C         -2.2389466642       -0.5230103574        0.2109909933
 C         -3.0893104517        0.2444919409        1.2281081840
 C         -2.9004115717       -0.5058174970       -1.1657160688
 C         -2.1105082655       -1.9547014467        0.7461938500
 Cl         2.8201643263       -1.2377670451       -0.4974793209
 H          3.5827876565        1.1016213660        1.2380897314
 H          2.9644161801        2.7143645418        0.8311454514
 H          3.6381992598        1.6557944509       -0.4237781479
 H          0.6988591531        2.8577361867        0.5870658274
 H         -3.9964017300       -0.3230842137        1.4176434281
 H         -2.5513332832        0.3578290727        2.1669506664
 H         -3.3685921865        1.2275870676        0.8675307425
 H         -3.8940451825       -0.9404620452       -1.1034329243
 H         -2.3082142607       -1.0823833762       -1.8714525896
 H         -2.9866951202        0.5178829690       -1.5228788003
 H         -3.1031256228       -2.3340585565        0.9724605152
 H         -1.6483572668       -2.6193028149        0.0251591889
 H         -1.5198049448       -1.9633970154        1.6602757599
  27
        -44.49331495
 C          3.0387438870        1.8402408315        0.1480441565
 C          1.7219672474        1.1478442161        0.1013394209
 C          1.5194769853       -0.1651821653       -0.1313166676
 C          0.1871556513       -0.7596146309       -0.1580596358
 O          0.0342275893       -1.9417992625       -0.3731288098
 N         -0.8894228223        0.1132475747        0.0791380041
 C         -0.7081865263        1.4599486393        0.3127410255
 O         -1.5648578863        2.2871237570        0.5154391710
 N          0.6071337249        1.9019804784        0.3133200467
 C         -2.2564604632       -0.5153121882        0.0573770793
 C         -3.3986861666        0.4649303006        0.3264090115
 C         -2.4857354362       -1.1141830413       -1.3350555581
 C         -2.3083822109       -1.5865236087        1.1530697917
 Cl         2.8160370439       -1.2623274244       -0.4196403945
 H          3.1998227732        2.2697695097        1.1359863153
 H          3.0633946348        2.6475429866       -0.5824928794
 H          3.8362310957        1.1369903874       -0.0683772759
 H          0.7008239146        2.8942235456        0.4892142216
 H         -4.3285942801       -0.0989200377        0.2913691258
 H         -3.3149201856        0.9263694538        1.3048543304
 H         -3.4452781725        1.2485945067       -0.4224250049
 H         -3.4901658130       -1.5246881101       -1.3861498813
 H         -1.7791669242       -1.9087903694       -1.5484397534
 H         -2.3892054559       -0.3391583001       -2.0928812781
 H         -2.0865605397       -1.1393202832        2.1201028570
 H         -3.3072759804       -2.0118583383        1.1897379913
 H         -1.6020365876       -2.3869531639        0.9622830668
