! r2scan-3c def2/J RI DEFGRID2 scfconv6 printgap
%output
    printlevel normal
end
* xyz 0 1
C 1.7806539261 -0.6168451322 1.0888569001
C 1.1773754227 0.4617772623 0.191706433
H 0.838578971 1.3046159148 0.8141775331
C 0.0059439289 -0.0580853713 -0.6480695393
C -1.2474273704 -0.4705645802 0.1290005883
C -1.8938484092 0.7146542356 0.8432288492
C -2.2500336202 -1.1033725306 -0.8359642916
O 2.1362003944 0.9471541806 -0.7408009424
H 2.1157462189 -1.4558760738 0.4836051201
H 2.6308812153 -0.2206759073 1.6400563712
H 1.043547611 -0.9668388541 1.8044144697
H -0.2541196251 0.7287240002 -1.3602509039
H 0.3717491145 -0.9094938521 -1.2263575167
H -0.9734722848 -1.222972007 0.8751988845
H -2.822960105 0.4053814173 1.316223896
H -2.1173165192 1.5069062601 0.1321604368
H -1.240334886 1.1156517074 1.6131420998
H -2.5462960043 -0.3850916016 -1.5972557603
H -1.8139880304 -1.9675511841 -1.3312306279
H -3.1405237637 -1.4262032571 -0.3021090859
H 2.9246898235 1.2383699556 -0.2634943604
*
