! r2scan-3c def2/J RI DEFGRID2 scfconv6 printgap
%output
    printlevel normal
end
%cpcm
    smd true
    smdsolvent "water"
end
* xyz 0 1
C 1.5134726492 0.1674352125 -1.2008944865
C 1.1220062642 -0.2347619066 0.2183190727
H 0.9634781445 -1.3233458424 0.2566750106
C -0.1229591937 0.4814019141 0.7575266427
C -1.4997619388 0.1133450536 0.1806301616
C -1.8101755073 0.811225083 -1.1432423058
C -1.7013456362 -1.3951321276 0.0511849244
O 2.1586605906 0.0967744076 1.1391664077
H 2.4863744312 -0.251076743 -1.4530433934
H 0.7903765186 -0.2092841545 -1.9157882674
H 1.5683165362 1.2499828088 -1.2832775109
H -0.133569057 0.2693278631 1.8300971736
H 0.0375468437 1.5561354046 0.6488912091
H -2.2289497005 0.4832724533 0.9119072108
H -1.6252467904 1.8796554461 -1.0654363842
H -2.8572434529 0.6637189583 -1.3990987801
H -1.2086939831 0.4149710136 -1.9550880487
H -1.0791405626 -1.8042807942 -0.7407888468
H -1.4543745279 -1.8963066323 0.9839886112
H -2.7396060025 -1.6111014319 -0.1897367896
H 2.9915684864 -0.2847200919 0.8307981238
*
