  12
        -17.46995430
 C          2.1057594426        0.0163115873        0.0000971675
 N          0.6715997224       -0.0033243267       -0.0001249644
 C         -0.1214834978       -1.1166572950       -0.0000611726
 C         -1.4087033942       -0.6630297821        0.0000677627
 N         -1.4217390016        0.6945023953        0.0000415336
 C         -0.1694164986        1.0567203635       -0.0000428747
 H          2.4958290235       -0.4861373493        0.8883771093
 H          2.4960500609       -0.4898120164       -0.8859743352
 H          2.4505647366        1.0491321702       -0.0019795084
 H          0.2889141039       -2.1056306512       -0.0000889927
 H         -2.3215169752       -1.2238595955        0.0001725914
 H          0.1746768605        2.0721729737       -0.0000729671
