  8
  -31.5671170300000        1.00000000000000      !input
 C         -0.7649285663       -0.0000197990        0.0000161479
 C          0.7648886679       -0.0000018008       -0.0000046050
 Cl         1.3572907404       -1.5370302498        0.6484764612
 Cl         1.3573008259        0.2069561481       -1.6552512235
 Cl         1.3572263098        1.3300903627        1.0068398897
 Cl        -1.3573080717       -0.2069151123        1.6552812770
 Cl        -1.3572594225       -1.3301133871       -1.0068988413
 Cl        -1.3572368648        1.5370195562       -0.6484514738
