  24
        -25.26408506
 C          4.0306154869        0.3271021521        0.1820213993
 C          2.6035247934        0.6622269894       -0.2338015062
 C          1.6256181005       -0.4489161200        0.1405201497
 C          0.1933971341       -0.1157799783       -0.2690647655
 C         -0.7824825780       -1.2306445675        0.0981047912
 C         -2.2216901189       -0.8839209726       -0.2964179311
 C         -2.7382678730        0.2909481852        0.4702692260
 C         -3.1975840887        1.4019465626       -0.0734367277
 H          4.3645172441       -0.5878991887       -0.3030055104
 H          4.7099417826        1.1300154910       -0.0953956511
 H          4.0902565853        0.1837084464        1.2588883878
 H          2.2933371149        1.5919535863        0.2488763729
 H          2.5688301790        0.8237215774       -1.3137692411
 H          1.6637159064       -0.6126968515        1.2203719892
 H          1.9340444698       -1.3785966173       -0.3445508948
 H         -0.1194693647        0.8098443598        0.2196976401
 H          0.1562377371        0.0537005443       -1.3479762656
 H         -0.7372642039       -1.4115114529        1.1747979984
 H         -0.4847001460       -2.1529929491       -0.4062079846
 H         -2.2701246341       -0.6785450078       -1.3675961620
 H         -2.8598871012       -1.7480201927       -0.0868599236
 H         -2.7127085332        0.1825937216        1.5476428762
 H         -3.5627512791        2.2226739038        0.5206751678
 H         -3.2320258783        1.5367499091       -1.1424116676
