! r2scan-3c def2/J RI DEFGRID2 scfconv6 printgap
%output
    printlevel normal
end
* xyz 0 1
C -1.6660392233 0.8120385907 -0.3640680468
C -1.299878469 -0.5623441754 0.1862897793
N 0.0478320719 -0.5909872624 0.7303223509
C 1.1215493308 -0.5260693278 -0.2576515401
C 1.7927772756 0.8468874855 -0.2605183089
H -2.7194755769 0.8308640724 -0.6308659046
H -1.4770313121 1.5710698454 0.3892846986
H -1.0826329081 1.042445129 -1.2512041825
H -1.4404677041 -1.3167772823 -0.6110057256
H -1.9810923493 -0.808880512 1.0045489901
H 0.1520735141 -1.4202725011 1.300689904
H 1.8799212022 -1.277913294 -0.0200313208
H 0.7392153525 -0.7514610006 -1.264062714
H 1.0808298328 1.6251650184 -0.5151934033
H 2.1944272329 1.0599147815 0.7257122381
H 2.6043064391 0.8601226661 -0.9836953458
*
