! pbe def2-sv(p) def2/J RI DEFGRID1 loosescf d4 GCP(DFT/SV(P)) printgap
%output
    printlevel normal
end
* xyz 0 1
C 1.4543754789 -1.3958738098 -0.103171322
C 1.0838041674 0.0169925546 0.3438273089
C 2.1831697606 0.9973064171 -0.0643608711
C -0.2554322331 0.4674564425 -0.2490981005
C -1.4523962319 -0.3297547936 0.2714370545
O -2.6898023925 0.2468338065 -0.0975962914
H 0.7311215968 -2.1228176233 0.2556627018
H 2.4310260623 -1.6681666506 0.2896089525
H 1.4949366647 -1.4509050612 -1.188778574
H 0.9974545116 0.0264108856 1.4361636363
H 2.2919977512 1.0136836525 -1.1464922308
H 3.134832591 0.7041380533 0.3717419637
H 1.9468153272 2.0034460887 0.2731155731
H -0.2110698763 0.3880826533 -1.3381773907
H -0.4223853225 1.5170224184 0.0050269279
H -1.4101603645 -1.3691429463 -0.0776001205
H -1.453425954 -0.3331212786 1.3645875078
H -2.7449297088 0.2793329706 -1.0627096345
*
