! r2scan-3c def2/J RI DEFGRID2 scfconv6 printgap
%output
    printlevel normal
end
%cpcm
    smd true
    smdsolvent "water"
end
* xyz 0 1
C -2.8139459122 0.8941273784 0.4902456101
C -2.2392557568 -0.066122974 -0.5494071671
C -2.5220147958 -1.514051397 -0.151822058
C -0.7442808774 0.1829659621 -0.8065658307
C 0.1361758326 0.097339058 0.4399845815
C 1.6543218291 0.1075398565 0.1763052233
C 2.0947460271 -1.1763268543 -0.5318215988
C 2.0617190347 1.3208307008 -0.6629274925
C 2.3650930506 0.1846935465 1.5330380243
H -3.8960404718 0.7931117606 0.5364778746
H -2.5765923588 1.923902419 0.2331674873
H -2.4122068448 0.6800859956 1.477191221
H -2.7536440526 0.1217973141 -1.5004360424
H -2.0974153636 -2.2011516163 -0.8801532176
H -2.1006311323 -1.7407571275 0.8241607588
H -3.594864624 -1.6861543284 -0.102474407
H -0.4078559125 -0.547388481 -1.5444229157
H -0.6387694265 1.1750569111 -1.2499172975
H -0.0993688428 -0.8183480898 0.9848898634
H -0.0984205922 0.9408108979 1.0922575364
H 3.1765671596 -1.1897880143 -0.6446913206
H 1.7995936043 -2.0506375743 0.044064967
H 1.6537365035 -1.2514199572 -1.5222134875
H 1.6666115245 1.2474044067 -1.6724668251
H 1.6931109437 2.2390966384 -0.2111582293
H 3.145874481 1.3831822059 -0.7282919621
H 2.0791996121 -0.654348497 2.1635991756
H 2.105362635 1.105833419 2.050076716
H 3.4444332589 0.160345439 1.4007530154
*
