! pbe def2-sv(p) def2/J RI DEFGRID1 loosescf d4 GCP(DFT/SV(P)) printgap
%output
    printlevel normal
end
* xyz 0 1
C -1.1414054552 0.2073924882 -0.4260130944
C 0.015071052 0.677525396 0.4689009954
C 1.1655267371 -0.358250187 0.5188365388
O 1.1597343443 -1.3006610859 -0.5213091376
O 0.553511562 1.8921172739 -0.0071546806
O -1.6172187145 -1.0293444953 0.0619325106
H -0.7671602164 0.1108534409 -1.4534719687
H -1.9341335082 0.9654652737 -0.4047705835
H -0.3662557947 0.8116415753 1.4917332314
H 1.146525046 -0.8681956832 1.4888067486
H 2.1039690046 0.1925933225 0.4247996193
H 0.3620109914 -1.8446144658 -0.4243738158
H -0.1214292062 2.5853651611 0.0139605653
H -2.4148206412 -1.2781823252 -0.4248369925
*
