  14
        -36.33235439
 C         -0.5850711133       -1.5202695802       -0.4805888585
 C          0.5359180159       -1.5613872828        0.5647061508
 O          0.9953736539       -0.2765612303        0.9236285118
 N          1.8712915588        0.3624600512        0.0125423374
 O          2.1379576147       -0.2500461263       -0.9634213783
 O          2.2232884616        1.4187574964        0.3810038983
 O         -1.7413348390       -0.8843882290        0.0202107327
 N         -1.7995828703        0.5213697819       -0.1099175581
 O         -0.8932587244        1.0345627339       -0.6707896905
 O         -2.7724658547        0.9826669142        0.3589870561
 H         -0.8955867954       -2.5372645538       -0.7215281337
 H         -0.2419397664       -1.0152440320       -1.3907915431
 H          1.3626560942       -2.1653417819        0.1763750579
 H          0.1647707634       -1.9857002710        1.4990921508
  14
        -36.33159616
 C         -0.4739774823        0.2227024036        1.1377491145
 C          0.2824155103       -1.0246696976        0.6626144710
 O          1.1692203840       -0.7453505156       -0.3985471911
 N          2.3759593023       -0.1094822608       -0.0602561390
 O          3.0714141064        0.0889421754       -0.9868570474
 O          2.5352087610        0.1339149570        1.0886433196
 O         -1.1355802507        0.8859664421        0.0828515296
 N         -2.3295090249        0.3041107412       -0.3767193486
 O         -2.8333499212        0.9076614741       -1.2504824477
 O         -2.6687843367       -0.6930101617        0.1665808761
 H          0.2148964245        0.9680444639        1.5394493487
 H         -1.1891901265       -0.0748763663        1.9117852259
 H         -0.4058088238       -1.7673539830        0.2549279023
 H          0.8247485589       -1.4507636486        1.5132186375
  14
        -36.33159240
 C         -0.4588437594       -0.8063311162        0.8173174323
 C          0.4250235219       -1.0884065792       -0.4043112235
 O          1.2473944673        0.0076285744       -0.7403728844
 N          2.3847474702        0.2100995172        0.0599165218
 O          3.0311320360        1.1321633049       -0.2772300649
 O          2.5442181282       -0.5592598712        0.9472121095
 O         -1.2408628534        0.3574833043        0.6607637892
 N         -2.3765557859        0.2472480199       -0.1596482098
 O         -2.5687707019       -0.8156315342       -0.6474638064
 O         -2.9886844100        1.2473921926       -0.2414509919
 H          0.1489467883       -0.6105005602        1.7025885958
 H         -1.0993731471       -1.6768118971        0.9942239806
 H         -0.1823039104       -1.2580583120       -1.2952816527
 H          1.0341732753       -1.9748484544       -0.1982521069
  14
        -36.33126739
 C         -0.6947378486       -1.6747643022       -0.4003737910
 C          0.6535158341       -1.7052552283        0.3362752324
 O          1.6198431999       -0.8571731336       -0.2455974816
 N          1.6843156585        0.4770010978        0.2207024762
 O          0.9085989531        0.7715390487        1.0641482669
 O          2.5296382836        1.1017452913       -0.2996495930
 O         -1.6403035331       -0.8260889453        0.2137602035
 N         -1.6720827897        0.5260824849       -0.2016765245
 O         -0.8888840185        0.8333813159       -1.0335887403
 O         -2.5023771563        1.1509153880        0.3421674204
 H         -1.1558360023       -2.6624135147       -0.3716319808
 H         -0.5332861045       -1.3723901209       -1.4417434124
 H          1.0903804089       -2.7020334769        0.2697195235
 H          0.4990688565       -1.4388500462        1.3884624201
  14
        -36.33099067
 C         -0.4191793623       -0.5739299486        0.2950404017
 C          0.4191242465        0.5732563879       -0.2960426656
 O          1.6441026016        0.7214401564        0.3830431599
 N          2.6755535945       -0.1762068461        0.0370512587
 O          2.4098943848       -0.9890152849       -0.7809415435
 O          3.6721108252        0.0185309299        0.6290716353
 O         -1.6446046174       -0.7215658626       -0.3834195580
 N         -2.6754354181        0.1763703634       -0.0368135544
 O         -2.4090729494        0.9890739151        0.7810855087
 O         -3.6725019483       -0.0179919554       -0.6281409039
 H         -0.5903682440       -0.3904206418        1.3622007925
 H          0.0859388806       -1.5319610375        0.1540984744
 H         -0.0863553216        1.5311868701       -0.1556904617
 H          0.5909374257        0.3894582336       -1.3630531141
  14
        -36.33080339
 C         -0.4660329873       -0.1974711366        0.7832053221
 C          0.4237064138       -0.7579004000       -0.3415789210
 O          1.7512160808       -0.9547116399        0.0892432377
 N          2.5558823429        0.1988812799        0.1962785255
 O          2.0285495842        1.2282227955       -0.0511980139
 O          3.6578491362       -0.0388251151        0.5300386807
 O         -1.8181854048       -0.5550746859        0.6090178193
 N         -2.5397403179        0.1663652436       -0.3651392172
 O         -3.6667757308       -0.1602966150       -0.4376207520
 O         -1.9305124068        0.9797508814       -0.9701425714
 H         -0.3670079184        0.8922952009        0.8439964845
 H         -0.1854113139       -0.6540601829        1.7350376313
 H          0.4027274332       -0.0949917739       -1.2140509953
 H          0.0782969343       -1.7561824772       -0.6196179643
  14
        -36.32954068
 C         -0.7383375538       -0.5747641968        0.8848774190
 C          0.4059505763       -0.2739270218       -0.0883521472
 O          1.5921760750       -0.2796160298        0.6799413795
 N          2.7774830872        0.0161120189       -0.0214320302
 O          2.6564421081        0.2281016887       -1.1781619225
 O          3.7328618085        0.0052889841        0.6638423410
 O         -1.9447461531       -0.8350836094        0.2096747797
 N         -2.6656435882        0.2906559766       -0.2527076644
 O         -2.1738678643        1.3456609760       -0.0442161004
 O         -3.6700705979        0.0031045249       -0.7895310786
 H         -0.8593397383        0.2598450274        1.5834975861
 H         -0.5190216645       -1.4875230385        1.4408858843
 H          0.2720481548        0.7049184508       -0.5642990118
 H          0.4526644067       -1.0470401536       -0.8650234699
  14
        -36.32937962
 C         -0.7332602392       -0.5121986173        0.9679935073
 C          0.3926455323       -0.5808122500       -0.0713265545
 O          1.6147921734       -0.5319906245        0.6335707843
 N          2.7133896520        0.0805380855       -0.0125372927
 O          2.5268297121        0.4768491700       -1.1091564847
 O          3.6768717635        0.0990519807        0.6602967685
 O         -1.9908899323       -0.7689208936        0.3917427585
 N         -2.5978210828        0.3041366227       -0.3009592097
 O         -1.9820420355        1.3130204469       -0.3409414422
 O         -3.6492568988        0.0271213322       -0.7457370811
 H         -0.7280255449        0.4671121611        1.4590599127
 H         -0.5951615227       -1.2960465047        1.7141649008
 H          0.3336350680        0.2634906053       -0.7692634826
 H          0.3264209674       -1.5196869460       -0.6334744757
  14
        -36.32931628
 C         -0.3857206515        0.1507401269       -0.0447004657
 C          0.5502359075       -1.0013268976        0.3401894616
 O          1.7826529504       -0.9224360398       -0.3353743000
 N          2.7315387920       -0.0126147777        0.1830469779
 O          2.3907218629        0.6169779845        1.1244002954
 O          3.7431828450       -0.0149641892       -0.4143711097
 O         -1.6686143431       -0.1680933396        0.4527856375
 N         -2.7809640948        0.3184876849       -0.2685136370
 O         -2.5452726932        0.9664721770       -1.2279340423
 O         -3.8050531531       -0.0056335101        0.2086458793
 H         -0.4219009088        0.2534395986       -1.1363833534
 H         -0.0474173320        1.0953192538        0.3963187088
 H          0.1161837587       -1.9526040328        0.0277323831
 H          0.7047087636       -1.0081781117        1.4241436027
  14
        -36.32926663
 C         -0.8352832729       -1.5267724130        0.3651749860
 C          0.5598486797       -1.3396438472       -0.2277597686
 O          0.9271229453        0.0140919076       -0.0309571418
 N          2.2973078407        0.3169621688       -0.1125649401
 O          3.0206890144       -0.5932414903       -0.3330872572
 O          2.5272217931        1.4574301354        0.0549519004
 O         -1.7910220241       -0.8050817942       -0.3731517731
 N         -2.1530498268        0.4823164991        0.1113014326
 O         -1.7416516426        0.7839515970        1.1740652934
 O         -2.8525372254        1.0567260468       -0.6372190593
 H         -0.8458180507       -1.1893673406        1.4079603602
 H         -1.1258797588       -2.5766497099        0.3052598035
 H          0.5490917739       -1.5640129989       -1.2998385703
 H          1.2743317017       -1.9996702461        0.2746675747
  14
        -36.32915344
 C         -0.3929022523       -0.5984916957       -0.3400526939
 C          0.4254649639        0.6670560465       -0.0197269751
 O          1.5247689562        0.4046080577        0.8240822494
 N          2.6492579092       -0.1778635218        0.2098315283
 O          2.5463957463       -0.4189281115       -0.9452877510
 O          3.5460102069       -0.3486110587        0.9508999277
 O         -1.6318534267       -0.6303890639        0.3329678623
 N         -2.6492948172        0.1780605933       -0.2082561011
 O         -2.3518928444        0.8280292249       -1.1527799079
 O         -3.6682450008        0.0918472936        0.3721524713
 H          0.1243034593       -1.4902008924        0.0187644521
 H         -0.5541366565       -0.6821759423       -1.4192240780
 H         -0.1765899590        1.3800779404        0.5463473120
 H          0.7715656689        1.1383329467       -0.9447579540
  14
        -36.32871616
 C         -0.8415083097       -1.2397805591        0.4500455421
 C          0.4168254041       -0.8718852605       -0.3337962561
 O          1.3001817150       -0.2209884617        0.5608063927
 N          2.5585310116        0.1234273012        0.0435406797
 O          2.7516739391       -0.1641826531       -1.0884858134
 O          3.2534463216        0.6559459794        0.8291381110
 O         -1.6071653459       -0.1164173613        0.8186671463
 N         -2.4264617983        0.4431564840       -0.1794829646
 O         -3.0453495068        1.3697769143        0.1947220855
 O         -2.3898961591       -0.0804146346       -1.2418961375
 H         -0.5657681651       -1.7023490492        1.3985756328
 H         -1.4459934188       -1.9276561064       -0.1509431200
 H          0.1809209466       -0.2138277226       -1.1778851164
 H          0.8832415109       -1.7831154718       -0.7239314932
  14
        -36.32870961
 C         -0.5206870053       -0.8408550407       -0.3710205741
 C          0.6287077026       -1.3795349063        0.4786638694
 O          1.5048119297       -0.3686008988        0.9198009855
 N          2.4459858918        0.1021328038       -0.0147242784
 O          2.4101228087       -0.3943315452       -1.0900603750
 O          3.1499152540        0.9382571853        0.4177465567
 O         -1.3613723297       -0.0861097513        0.4821495568
 N         -2.4844404843        0.5008516576       -0.1205945830
 O         -3.1489316671        1.1129293926        0.6327108452
 O         -2.6137088033        0.3046638511       -1.2808986937
 H         -1.0794375699       -1.6784432002       -0.8025794851
 H         -0.1495771276       -0.2127567408       -1.1889811053
 H          1.1779702610       -2.1292616988       -0.1009891993
 H          0.2373275700       -1.8181597073        1.3973756017
  14
        -36.32867924
 C         -0.4860324192       -0.7814184460       -0.6269462124
 C          0.6256864876       -1.4809312702        0.1530550058
 O          1.4126013383       -0.5855491562        0.9037440535
 N          2.4082407967        0.1202803858        0.2011480565
 O          3.0339828838        0.8421731260        0.8859549969
 O          2.4862095831       -0.1007972453       -0.9601686752
 O         -1.4477555765       -0.3361226650        0.3117107765
 N         -2.4406504351        0.5294276955       -0.1741199322
 O         -2.3787163389        0.8008931008       -1.3245906963
 O         -3.2082718433        0.8626670749        0.6525066477
 H         -0.9455137441       -1.4899650290       -1.3246262185
 H         -0.0957086776        0.0675237649       -1.1999328810
 H          1.2548060928       -2.0408650518       -0.5470186683
 H          0.1909258567       -2.1508632892        0.8958661872
  14
        -36.32848026
 C         -0.8004967636       -1.4702754723        0.3851429466
 C          0.7180826127       -1.6429448810        0.3367107125
 O          1.3530103690       -0.4858429323        0.8318836157
 N          2.0643290692        0.3299239208       -0.0875850588
 O          2.1698297852       -0.0758410103       -1.1902257206
 O          2.4662288785        1.3133988798        0.4141129272
 O         -1.1782530799       -0.4794605566       -0.5489911696
 N         -2.0596144550        0.5408778920       -0.1212680805
 O         -2.4673782507        0.4635585068        0.9846632083
 O         -2.2638587441        1.3349946203       -0.9629963046
 H         -1.1133372638       -1.1603820994        1.3887352083
 H         -1.2896869136       -2.4121361805        0.1213366409
 H          1.0404546256       -1.8207473912       -0.6954903667
 H          1.0159325837       -2.4803802534        0.9710432138
  14
        -36.32846936
 C         -0.9304072352       -1.4908871414        0.3490046034
 C          0.5911520525       -1.6110139621        0.4495359356
 O          1.1326093887       -0.3963390276        0.9229992360
 N          2.0768447026        0.2795157613        0.1100877951
 O          2.4078094458       -0.2608928144       -0.8859565839
 O          2.4046793761        1.3080595382        0.5739190397
 O         -1.2724353659       -0.5892619055       -0.6811565123
 N         -1.9788658179        0.5902994109       -0.3326930521
 O         -2.1404416733        1.2981316038       -1.2564637577
 O         -2.3107590992        0.7007891623        0.7945633271
 H         -1.3406798111       -1.1284504422        1.2984456779
 H         -1.3626577279       -2.4640078815        0.1043379975
 H          1.0153498256       -1.8367098566       -0.5354924742
 H          0.8537510615       -2.4018216336        1.1566193064
  14
        -36.32846296
 C         -0.8391433763       -1.5584385449        0.2954997908
 C          0.6768718983       -1.5864107796        0.4996248965
 O          1.2998708014       -0.7188356230       -0.4228049331
 N          2.0294880615        0.3869430730        0.0836069122
 O          2.4385895303        1.0773236929       -0.7745741333
 O          2.1372562392        0.4636994590        1.2565180736
 O         -1.3503562389       -0.3003590124        0.6800370515
 N         -1.9841082468        0.4966197599       -0.3069669141
 O         -2.1158224378        0.0167337816       -1.3772981543
 O         -2.3015941314        1.5480191187        0.1105062472
 H         -1.3107178298       -2.3205333294        0.9202990191
 H         -1.0783260557       -1.7396892697       -0.7585502095
 H          1.0555575263       -2.5958640562        0.3231626291
 H          0.9231141327       -1.2683751110        1.5190878904
  14
        -36.32728006
 C         -0.6727709693        0.2503272083        0.2559852355
 C          0.6727042802       -0.2518571231       -0.2551715584
 O          1.6594959764        0.3083435560        0.5866447049
 N          2.9923186041       -0.0394965390        0.2840091706
 O          3.1424590444       -0.7609932938       -0.6399583164
 O          3.7723829301        0.4519084916        1.0130690978
 O         -1.6598091477       -0.3111668176       -0.5846903019
 N         -2.9922685647        0.0400312527       -0.2843284495
 O         -3.7726488732       -0.4524855590       -1.0123323464
 O         -3.1418782536        0.7652105567        0.6368740978
 H         -0.7103238233        1.3444306270        0.2151664947
 H         -0.8267569085       -0.0655974880        1.2935971636
 H          0.8274418066        0.0650240685       -1.2923764334
 H          0.7097116450       -1.3460243047       -0.2154072075
