! r2scan-3c def2/J RI DEFGRID2 scfconv6 printgap
%output
    printlevel normal
end
* xyz 0 1
C -3.2704815612 1.1216248441 -0.758051142
C -2.563229646 0.0543449425 0.0315064101
O -3.2085290783 -0.7900984545 0.6428889692
C -1.0895665177 0.0086516596 0.0210388411
C -0.2744213229 1.1035785866 -0.2608957998
C 1.1021199225 0.9922265747 -0.2412727322
C 1.7035786993 -0.2305763438 0.0526713705
C 0.8934351954 -1.3335321568 0.3480335585
C -0.4732223205 -1.2083937702 0.3415503913
O 3.0370887391 -0.4514364306 0.0856383551
C 3.9207744366 0.6169156985 -0.2120472103
H -4.0456775018 1.5680392053 -0.1393860978
H -3.7688224882 0.6314104143 -1.5932764888
H -2.6056360153 1.8832623218 -1.142573294
H -0.7031699534 2.0707826734 -0.4676541081
H 1.6996351824 1.863691458 -0.4529535688
H 1.3703372986 -2.2718655375 0.5812411615
H -1.1040347136 -2.0534945754 0.5739149154
H 3.7599404427 0.9881493718 -1.226693448
H 4.9183958004 0.1918629639 -0.1307702855
H 3.8083910912 1.4317231491 0.5067808513
*
