  14
  -26.3400419000000       0.500007936461027      !mtd5
 C         -2.5568435619       -0.0000010026       -0.0000267301
 C         -1.8685107589       -1.2043135752        0.0004378244
 C         -0.4865156308       -1.2112673130        0.0004518961
 C          0.1942862058       -0.0000003041        0.0000241441
 C         -0.4865170248        1.2112691095       -0.0004089711
 C         -1.8685092892        1.2043144034       -0.0004505216
 N          1.6368688705        0.0000008090        0.0000033882
 O          2.1998573694        1.0738588067        0.0009265096
 O          2.1998542930       -1.0738605734       -0.0009527446
 H         -3.6363803904        0.0000045285        0.0000120457
 H         -2.4101080938       -2.1375511574        0.0008299105
 H          0.0757243564       -2.1324715196        0.0007903571
 H          0.0757282411        2.1324703699       -0.0007718895
 H         -2.4101119943        2.1375488755       -0.0008204563
  14
  -26.3400418700000       0.499992063538973      !gc
 C         -2.5568629578        0.0000283444        0.0001244475
 C         -1.8685038052       -1.2042989173        0.0011387389
 C         -0.4865019127       -1.2112194877        0.0012301758
 C          0.1943028206        0.0000761862       -0.0000263864
 C         -0.4865090986        1.2113159600       -0.0013031453
 C         -1.8685270759        1.2043208457       -0.0012370529
 N          1.6368670204        0.0000185802       -0.0001168858
 O          2.1996224093       -1.0740209354        0.0009113081
 O          2.2000875264        1.0738273904       -0.0007639346
 H         -3.6363932357       -0.0000393314        0.0002177652
 H         -2.4100905669       -2.1375596689        0.0021577258
 H          0.0756928702       -2.1324334039        0.0021758632
 H          0.0756721881        2.1326019140       -0.0023078731
 H         -2.4100717122        2.1375879751       -0.0020859558
