! r2scan-3c def2/J RI DEFGRID2 scfconv6 printgap
%output
    printlevel normal
end
%cpcm
    smd true
    smdsolvent "water"
end
* xyz 0 1
C 2.4714239957 0.8425180108 0.2990569649
C 1.2456533799 -0.0662312377 0.2494271257
C 1.4744515132 -1.2214423828 -0.7229927618
C 0.0063629973 0.7366387808 -0.1562606295
C -1.2995625454 0.0293773797 0.0928695556
O -1.3802296536 -1.0453387358 0.6560823488
C -2.5218452467 0.7655585487 -0.3854377895
H 2.3337295181 1.6394598585 1.0258916074
H 3.3525331351 0.2718979499 0.5810120502
H 2.6505345048 1.2892840288 -0.6762684653
H 1.0673601379 -0.48542036 1.2459722528
H 0.6061542617 -1.8760922467 -0.7413221509
H 2.3371390158 -1.8090784049 -0.4188895406
H 1.6509050934 -0.8443879521 -1.7284058813
H 0.0578540588 0.9991350647 -1.2150637908
H -0.0346241328 1.6733892665 0.4062098851
H -3.1355028212 1.0173975714 0.4773593132
H -2.2659097294 1.6676232668 -0.9290996672
H -3.1137776982 0.1037934085 -1.0138196655
*
