! r2scan-3c def2/J RI DEFGRID2 scfconv6 printgap
%output
    printlevel normal
end
* xyz 0 1
C -1.1142250581 -0.0777393073 0.7130928117
C 0.2290670646 0.5894791021 0.3664493663
C 1.1379867581 -0.3454376431 -0.4502167774
O 1.6473587875 -1.4143430627 0.3078461397
O 0.0129512098 1.7406230524 -0.4268606316
O -1.8139672019 -0.4930646101 -0.4359027597
H -1.7270397736 0.6236362609 1.2969800291
H -0.9459805749 -0.9702185888 1.3174352709
H 0.7488092262 0.8430568607 1.300024762
H 2.000016182 0.2326134255 -0.7908385792
H 0.5888817724 -0.7021921134 -1.3279443675
H 0.9529607533 -2.0744032714 0.4377091059
H -0.3348982245 2.4557612601 0.1238954854
H -1.8564295955 0.2575030111 -1.0479738116
*
