! r2scan-3c def2/J RI DEFGRID2 scfconv6 printgap
%output
    printlevel normal
end
%cpcm
    smd true
    smdsolvent "water"
end
* xyz 0 1
C -2.1231106819 1.0472236193 -0.585222476
C -1.5327306421 -0.0285901879 0.3229325878
C -2.618912005 -0.9714386936 0.8325628917
C -0.4644880086 -0.8317683961 -0.4258736425
O 0.642875225 -0.0079189417 -0.8100199956
C 1.6429784263 0.1477588585 0.0507723913
O 1.6732475728 -0.3753683034 1.1458628112
C 2.7249594258 1.01781245 -0.5153152454
H -1.3348794988 1.6751493774 -0.9932180498
H -2.8134141484 1.6740443063 -0.0273373137
H -2.6606886063 0.5866216118 -1.4105271271
H -1.0447383682 0.4505169553 1.1797648614
H -3.0876848098 -1.4915464879 0.0009339802
H -3.3811323587 -0.40753477 1.3627048433
H -2.1995703741 -1.7088191817 1.5123323867
H -0.0934322018 -1.6461860368 0.2043482182
H -0.8610383156 -1.2279805272 -1.3616950307
H 2.2865047522 1.8236159152 -1.09481065
H 3.3401130078 0.4129655159 -1.1779599957
H 3.3423223408 1.4031588506 0.2894007283
*
