! pbe def2-sv(p) def2/J RI DEFGRID1 loosescf d4 GCP(DFT/SV(P)) printgap
%output
    printlevel normal
end
* xyz 0 1
C -1.7379261243 -0.6209960535 1.0089892011
C -1.2598174155 -0.3380005314 -0.4129803303
C -2.3551653654 0.3901240538 -1.1917456652
C 0.0308256027 0.4901421572 -0.4376217316
C 1.2589089134 -0.2204295151 0.1623198567
C 2.4780400607 -0.0515879442 -0.7448785552
C 1.5872240317 0.3067995533 1.5586893756
H -2.6748052652 -1.1736575359 0.9874606573
H -1.0095928693 -1.2131773591 1.556106624
H -1.9034025496 0.3116009659 1.5445153587
H -1.06258335 -1.2954670539 -0.909776145
H -3.2695115639 -0.1984751035 -1.2062175969
H -2.5726633314 1.3501628887 -0.7284237653
H -2.0454252173 0.5671832083 -2.2191690136
H -0.1419629459 1.4300134499 0.0907191987
H 0.2419218985 0.7406863012 -1.4795045951
H 1.0427037609 -1.2919555311 0.2372000107
H 2.2885772881 -0.4777164318 -1.7274590252
H 2.716458845 1.0032021125 -0.865141736
H 3.344146221 -0.5516391063 -0.3167587
H 0.7328157153 0.2162181755 2.2232700588
H 2.4172605656 -0.2492468588 1.9897511079
H 1.8711601029 1.3559932384 1.5054036434
*
