  21
        -25.37986599
 C         -2.5534152209       -0.8308003661       -0.9704628884
 C         -2.4826442624        0.4805969400       -0.1992042847
 C         -1.5089936295        0.4032280439        0.9846204320
 C         -0.0961789779        0.1938841964        0.5199937009
 C          0.6290219550        1.2533469224       -0.0123763585
 C          1.9184695815        1.0663085896       -0.4755653706
 C          2.5036787371       -0.1871789039       -0.4134290343
 C          1.7919573498       -1.2488897055        0.1168966643
 C          0.5015148343       -1.0580554548        0.5794960605
 H         -2.8863478768       -1.6380388331       -0.3212605529
 H         -3.2526603281       -0.7475476506       -1.7993858636
 H         -1.5755341199       -1.0911717354       -1.3693118181
 H         -3.4763595500        0.7349972623        0.1768384550
 H         -2.1644935253        1.2794706453       -0.8724756925
 H         -1.8094520253       -0.4157312403        1.6414023782
 H         -1.5708842112        1.3353380414        1.5517974716
 H          0.1781008081        2.2349301047       -0.0598476419
 H          2.4697634927        1.9003328490       -0.8855361828
 H          3.5107962383       -0.3346652891       -0.7750742621
 H          2.2428429184       -2.2294401379        0.1705093535
 H         -0.0482124575       -1.8917342468        0.9935233293
  21
        -25.37968772
 C         -3.7470505745       -0.1164193273       -0.4127757413
 C         -2.2429495817       -0.1734073016       -0.6457203514
 C         -1.4579934597        0.1626946790        0.6279542357
 C          0.0194969639        0.0975649410        0.3701476738
 C          0.7103723475        1.2166408687       -0.0768500117
 C          2.0638744793        1.1478842221       -0.3546573098
 C          2.7463918254       -0.0452867621       -0.1911794261
 C          2.0673592558       -1.1674196351        0.2515734592
 C          0.7138896046       -1.0950361628        0.5284310646
 H         -4.2845839045       -0.3570928584       -1.3271014841
 H         -4.0420491586       -0.8275755067        0.3560520894
 H         -4.0465826579        0.8786803896       -0.0903990195
 H         -1.9654862689        0.5322293316       -1.4320537333
 H         -1.9608662147       -1.1726831536       -0.9849930615
 H         -1.7311846449       -0.5464530044        1.4124403333
 H         -1.7342809985        1.1649270956        0.9628140553
 H          0.1824407615        2.1514321433       -0.2045457447
 H          2.5880589434        2.0278748944       -0.6988092321
 H          3.8034498638       -0.1001398033       -0.4065758014
 H          2.5943584847       -2.1016231306        0.3824672109
 H          0.1886519500       -1.9738998759        0.8756798081
  21
        -25.37731059
 C         -3.8146178122        0.0676017235       -0.3381742372
 C         -2.3535236487        0.4791394098       -0.4772395965
 C         -1.4502909619       -0.3990924942        0.3858316554
 C          0.0302206101       -0.1841175368        0.2074421029
 C          0.5674560947        0.9649994486       -0.3565607015
 C          1.9384013267        1.1179658304       -0.4820167504
 C          2.7969215185        0.1271289561       -0.0423149911
 C          2.2739628829       -1.0226283933        0.5253044878
 C          0.9056167792       -1.1738100099        0.6457043953
 H         -3.9552731670       -0.9625566130       -0.6589432843
 H         -4.1378591349        0.1502595552        0.6975696203
 H         -4.4511297727        0.7052839894       -0.9473678805
 H         -2.2515384470        1.5240143662       -0.1779886245
 H         -2.0502872186        0.3935532214       -1.5231588128
 H         -1.6722319267       -1.4486708226        0.1716019591
 H         -1.6973035134       -0.2323445220        1.4401597947
 H         -0.0802130097        1.7541725632       -0.7054778832
 H          2.3360627632        2.0191023972       -0.9265421108
 H          3.8656382383        0.2484362730       -0.1408572292
 H          2.9343977366       -1.8040711525        0.8727619997
 H          0.5043181793       -2.0753192161        1.0881778454
  21
        -25.37499348
 C         -3.1421732832        0.5828149086       -1.0566339913
 C         -2.4638569525        0.5174004739        0.3079518947
 C         -1.5056414420       -0.6762573373        0.4460526533
 C         -0.0489470590       -0.3511869886        0.2433822567
 C          0.3838394926        0.5699288916       -0.7023797818
 C          1.7319265174        0.8334797231       -0.8715319942
 C          2.6748760812        0.1766042517       -0.1010865684
 C          2.2578245851       -0.7461609408        0.8423651182
 C          0.9095482785       -1.0035344783        1.0114232972
 H         -3.7825898809        1.4601069131       -1.1201880288
 H         -2.4127680067        0.6329176362       -1.8610575509
 H         -3.7579686239       -0.3003483727       -1.2150465535
 H         -3.2411769149        0.4392455584        1.0711204941
 H         -1.9189797725        1.4446627862        0.4958126892
 H         -1.7921309271       -1.4466931912       -0.2769244784
 H         -1.6166796877       -1.1178707024        1.4388867825
 H         -0.3323652608        1.0939416245       -1.3159263206
 H          2.0467518519        1.5557688511       -1.6111949059
 H          3.7267691206        0.3824174605       -0.2344537782
 H          2.9844639127       -1.2651557218        1.4508157273
 H          0.5942176197       -1.7241124169        1.7535804854
