! pbe def2-sv(p) def2/J RI DEFGRID1 loosescf d4 GCP(DFT/SV(P)) printgap
%output
    printlevel normal
end
* xyz 0 1
C -2.9864079849 0.0630560352 0.8693824802
C -2.341552867 0.3133358715 -0.4892808552
C -1.1221760055 -0.5731726732 -0.7512412765
C 0.0803592516 -0.2607333595 0.1369321379
C 1.2513222761 -1.2207552571 -0.0997789267
C 2.4487805996 -0.4542417478 0.4490202218
C 2.2126744989 0.9692013784 -0.0592437452
C 0.6828518907 1.1380074712 -0.1020985899
H -2.3143884633 0.3378092388 1.6780096629
H -3.8939405746 0.6537265624 0.9694414981
H -3.2462674941 -0.9875533356 0.979125565
H -3.0815044671 0.1180522179 -1.2691567531
H -2.0522677369 1.3630005712 -0.5651387974
H -1.4065668536 -1.6180923538 -0.6024243822
H -0.82249254 -0.4591337695 -1.7964043254
H -0.2199189212 -0.3469660192 1.1847682249
H 1.1036987676 -2.182868939 0.3888958932
H 1.3788828638 -1.3921767002 -1.1703808172
H 2.4292469052 -0.4730473651 1.5399665957
H 3.4018265486 -0.861850001 0.1150059908
H 2.6893521199 1.7132535161 0.5774705986
H 2.6288612618 1.0720600399 -1.0620233726
H 0.342871009 1.8411571466 0.6575283963
H 0.371165685 1.5241528539 -1.0728315735
*
