  17
        -23.95475016
 C         -2.1652907620        1.0365807321       -0.6363649975
 C         -2.0866571655       -0.2810389358        0.1252149645
 C         -0.8233692257       -0.3590919577        0.9883172406
 C          0.4131873999       -0.4112145003        0.1287895996
 O          0.5935616001       -1.1933411851       -0.7813679264
 O          1.2933900554        0.5143902854        0.4916160534
 C          2.5395922020        0.6066542804       -0.2060606894
 H         -3.0811290222        1.0829803218       -1.2193859158
 H         -2.1493288621        1.8779628480        0.0522708327
 H         -1.3215425516        1.1322603167       -1.3172714113
 H         -2.0781275891       -1.1132386423       -0.5811401076
 H         -2.9597956134       -0.3851655292        0.7696431812
 H         -0.8456017567       -1.2753066023        1.5810196846
 H         -0.7486476749        0.4992518824        1.6548448466
 H          2.6514068277        1.6372454532       -0.5359552044
 H          2.5377216148       -0.0741103392       -1.0581311345
 H          3.3355587778        0.3423199288        0.4881203540
  17
        -23.95470270
 C         -2.2024765928        1.0387800159        0.5883438039
 C         -2.0893213452       -0.3018324630       -0.1273998153
 C         -0.8170746857       -0.3816539765       -0.9760656307
 C          0.4146054068       -0.3912060736       -0.1088733930
 O          0.5878449174       -1.1073897855        0.8547693463
 O          1.3189275418        0.4873213088       -0.5303123227
 C          2.5509587232        0.5691349470        0.1908198677
 H         -3.1220787895        1.0837024726        1.1654978071
 H         -1.3646719307        1.1768347832        1.2693491646
 H         -2.2023503031        1.8566050249       -0.1283024562
 H         -2.9544790613       -0.4461187126       -0.7748145703
 H         -2.0695216299       -1.1090363332        0.6071578168
 H         -0.7490345933        0.4582265104       -1.6665148299
 H         -0.8182105759       -1.3132942641       -1.5451232989
 H          3.1625891593        1.2815904875       -0.3533134083
 H          3.0272369240       -0.4112349505        0.2283886689
 H          2.3639239514        0.9113535584        1.2093322464
  17
        -23.95470351
 C         -2.1962945077        1.0143908248       -0.6449392020
 C         -2.0888798355       -0.2946338785        0.1278746967
 C         -0.8229093078       -0.3381156995        0.9886683024
 C          0.4141617648       -0.3882110393        0.1306509107
 O          0.5950779753       -1.1526595187       -0.7937232488
 O          1.3133099925        0.5141103067        0.5108161972
 C          2.5485832106        0.5630229816       -0.2077289303
 H         -1.3517251187        1.1250581234       -1.3225821707
 H         -3.1099942870        1.0334828076       -1.2328009618
 H         -2.2044470839        1.8616798591        0.0365621021
 H         -2.0635310688       -1.1324089757       -0.5714614184
 H         -2.9590004016       -0.4114214032        0.7741655455
 H         -0.8297587306       -1.2433054677        1.5988163839
 H         -0.7584394180        0.5320439216        1.6408650873
 H          3.0268445887       -0.4170268726       -0.1949729746
 H          3.1563708630        1.3026516618        0.3034468231
 H          2.3656326178        0.8544006335       -1.2426803777
  17
        -23.95469991
 C         -2.1781479604        1.0669130821        0.5690420244
 C         -2.0882527364       -0.2933006574       -0.1121342489
 C         -0.8217072046       -0.4139389408       -0.9652333156
 C          0.4130074978       -0.4082190628       -0.1018889909
 O          0.5954447374       -1.1266010500        0.8587035634
 O          1.3014959445        0.4827138758       -0.5282411026
 C          2.5418684169        0.6007863145        0.1743590680
 H         -2.1642968384        1.8658758590       -0.1684440850
 H         -3.0966511395        1.1423435364        1.1447610641
 H         -1.3378886896        1.2081364091        1.2463596910
 H         -2.9586440094       -0.4416636173       -0.7515785922
 H         -2.0764927442       -1.0815735622        0.6428808326
 H         -0.7495930149        0.4039084106       -1.6811628678
 H         -0.8365048594       -1.3633536348       -1.5035201035
 H          3.2745145106        0.9303886880       -0.5565548723
 H          2.8189242767       -0.3620578334        0.6052434608
 H          2.4360249520        1.3380840261        0.9702830308
  17
        -23.95470960
 C         -2.1698618227        1.0857466266        0.5505938109
 C         -2.0857626314       -0.2926708883       -0.0936872058
 C         -0.8275592571       -0.4361979123       -0.9559632341
 C          0.4143041068       -0.4154015839       -0.1036672914
 O          0.6100108026       -1.1202578131        0.8642392762
 O          1.2930792534        0.4825625495       -0.5371983978
 C          2.5295553332        0.6021734672        0.1710621168
 H         -1.3194922257        1.2494602992        1.2099891734
 H         -2.1708785125        1.8636145647       -0.2091643723
 H         -3.0794355432        1.1741004302        1.1385407240
 H         -2.9624984329       -0.4587631038       -0.7199632250
 H         -2.0658601001       -1.0603154328        0.6821887227
 H         -0.7596212526        0.3661741810       -1.6895438740
 H         -0.8507262139       -1.3970684557       -1.4731350942
 H          3.0004971301        1.5034869676       -0.2083226462
 H          3.1515858728       -0.2726737949       -0.0207732661
 H          2.3408074704        0.6761602976        1.2427903593
  17
        -23.95470619
 C         -2.1571884486        1.0981870629        0.5393149593
 C         -2.0854774846       -0.2900496539       -0.0850881022
 C         -0.8310130626       -0.4557130317       -0.9491281975
 C          0.4131593257       -0.4204224053       -0.1008983442
 O          0.6169770111       -1.1165589912        0.8715363697
 O          1.2859878190        0.4788125592       -0.5437654316
 C          2.5211566892        0.6095953552        0.1645037130
 H         -2.1496914630        1.8651774603       -0.2314087555
 H         -3.0665503088        1.2036705337        1.1247611580
 H         -1.3061057044        1.2631874181        1.1974695900
 H         -2.9651982496       -0.4585811705       -0.7065157733
 H         -2.0691822509       -1.0464531779        0.7018182850
 H         -0.7634921140        0.3316709234       -1.6987929513
 H         -0.8595639600       -1.4269499988       -1.4461082271
 H          3.0868437830       -0.3205701430        0.1008124877
 H          2.3277104760        0.8351680282        1.2139498157
 H          3.0520571158        1.4231262679       -0.3193276584
  17
        -23.95468784
 C         -2.2727227962        0.9334930604       -0.6852002969
 C         -2.0959317736       -0.3207565597        0.1623589419
 C         -0.8105400431       -0.2645802610        0.9901435077
 C          0.4158942373       -0.3394147415        0.1184627075
 O          0.5507324479       -1.0609934959       -0.8469413938
 O          1.3686045948        0.4852582169        0.5446109397
 C          2.6056495411        0.4948427449       -0.1725924055
 H         -3.2004969659        0.8824688103       -1.2485376883
 H         -2.2971165603        1.8206118024       -0.0567163017
 H         -1.4498532308        1.0319334171       -1.3906892963
 H         -2.0546474991       -1.1971844912       -0.4869081006
 H         -2.9457014158       -0.4304792953        0.8363998645
 H         -0.7716802927       -1.1228598146        1.6645864371
 H         -0.7580016036        0.6476403662        1.5836996988
 H          3.0555825134       -0.4984318393       -0.1536654721
 H          3.2339233744        1.2184906092        0.3366839114
 H          2.4328603112        0.7858882996       -1.2093777928
  17
        -23.95468706
 C         -2.0971741424        1.0906206277       -0.6064449204
 C         -2.0792080289       -0.2594138887        0.1001906572
 C         -0.8375608825       -0.4180830186        0.9858022611
 C          0.4111353116       -0.4403635842        0.1443374164
 O          0.6449496355       -1.2392103233       -0.7383883677
 O          1.2473272321        0.5375963571        0.4763855274
 C          2.4755663386        0.6356473225       -0.2486507964
 H         -2.0574515086        1.9014697215        0.1168747713
 H         -1.2417843827        1.1827783641       -1.2731616420
 H         -3.0028895577        1.1965382451       -1.1974848533
 H         -2.0853601280       -1.0620300021       -0.6397308219
 H         -2.9682043738       -0.3591979907        0.7233047514
 H         -0.8945890627       -1.3673792544        1.5203454663
 H         -0.7617808758        0.4006318551        1.7001046254
 H          3.0141647522        1.4654810020        0.1974518677
 H          2.2716151391        0.8227369781       -1.3036390918
 H          3.0383168905       -0.2939166021       -0.1566504004
  17
        -23.95456744
 C         -3.2569141644        0.4678806305        0.0913947789
 C         -1.9487368912       -0.2166412523       -0.2829739357
 C         -0.7471174866        0.5209087381        0.3012216991
 C          0.5578104229       -0.1383057976       -0.0549391637
 O          0.6849619461       -1.1402751381       -0.7253177652
 O          1.5914404076        0.5220021369        0.4643659332
 C          2.9002036419        0.0064856726        0.2059707655
 H         -4.0990061296       -0.0714338505       -0.3331243428
 H         -3.3761371678        0.4974220995        1.1715377472
 H         -3.2753072426        1.4872336655       -0.2859307140
 H         -1.8463647593       -0.2600394958       -1.3687807783
 H         -1.9467905533       -1.2453580489        0.0818318637
 H         -0.8111913743        0.5649377776        1.3902778274
 H         -0.7099211159        1.5500426311       -0.0615043861
 H          3.5848664260        0.6844353349        0.7053499263
 H          3.0858024140       -0.0186805829       -0.8684195720
 H          2.9880808667       -1.0047937293        0.6046941625
  17
        -23.95453516
 C         -2.2022462909        0.8850841109        0.7307586062
 C         -1.8076289679        0.3820674911       -0.6524905023
 C         -0.9166222879       -0.8643983008       -0.5714882796
 C          0.4068915392       -0.5450154904        0.0723218008
 O          0.8074962745       -1.0116776789        1.1186830175
 O          1.1073788618        0.3255250636       -0.6463974486
 C          2.3819303022        0.7266340062       -0.1405317727
 H         -2.8238372311        1.7726882414        0.6491415540
 H         -2.7578544118        0.1215529174        1.2700685919
 H         -1.3193438659        1.1346740670        1.3164317130
 H         -1.2725305598        1.1640004200       -1.1931022048
 H         -2.7058853729        0.1292958290       -1.2165898395
 H         -0.7184916327       -1.2330820965       -1.5783832799
 H         -1.4011396502       -1.6445422369        0.0153465699
 H          2.7704739176        1.4416319620       -0.8587122691
 H          3.0385905108       -0.1399876962       -0.0548726677
 H          2.2676744535        1.1818767962        0.8440955571
  17
        -23.95451954
 C         -2.2042252962        0.8558948335        0.7517641832
 C         -1.8007168049        0.4074840981       -0.6476164000
 C         -0.9099960265       -0.8412508539       -0.6102798459
 C          0.4062620600       -0.5504828283        0.0631272642
 O          0.7825251037       -1.0573091603        1.1002040428
 O          1.1142099200        0.3380848118       -0.6226518385
 C          2.3910976563        0.7481709810       -0.1258116089
 H         -2.7624575327        0.0714168758        1.2572808832
 H         -1.3252400518        1.0828567296        1.3523469063
 H         -2.8262766176        1.7454968322        0.7008932080
 H         -1.2627571425        1.2099596056       -1.1541975091
 H         -2.6952733709        0.1767255227       -1.2268764335
 H         -0.7006964297       -1.1665296892       -1.6296838230
 H         -1.4011726528       -1.6452861207       -0.0625683314
 H          2.3484424496        1.8195962915        0.0620039523
 H          3.1293368276        0.5282291212       -0.8945042137
 H          2.6222101678        0.2082375786        0.7931475392
  17
        -23.95451872
 C         -2.2189626647        0.7144949134       -0.8410234254
 C         -1.7819295634        0.5314534816        0.6073037185
 C         -0.8949583040       -0.7079444405        0.7810170024
 C          0.4066642240       -0.5595566287        0.0362462207
 O          0.7699356022       -1.2750115273       -0.8748885428
 O          1.1176936857        0.4599098744        0.5008956288
 C          2.3832788555        0.7572204291       -0.0949451489
 H         -2.7898694941       -0.1472376421       -1.1788633820
 H         -2.8389373599        1.6013259488       -0.9414895279
 H         -1.3544809871        0.8217294345       -1.4936500665
 H         -2.6623678451        0.4181617409        1.2405316630
 H         -1.2300868112        1.4105647565        0.9425690804
 H         -1.4006227902       -1.5971970927        0.4050315394
 H         -0.6614712915       -0.8404076479        1.8379618408
 H          2.3782242305        1.8126798468       -0.3585430795
 H          2.5313660580        0.1378646714       -0.9803224729
 H          3.1598252010        0.5545885904        0.6409794230
  17
        -23.95452880
 C         -2.2311301660        0.8372032249        0.7460789920
 C         -1.8034471520        0.4029939057       -0.6505349951
 C         -0.9053137216       -0.8410144356       -0.6106463227
 C          0.4072001608       -0.5358090908        0.0614574486
 O          0.7793594377       -1.0016725779        1.1185271003
 O          1.1325620003        0.3241767773       -0.6454943416
 C          2.3992837202        0.7159608139       -0.1131764199
 H         -1.3628853503        1.0574357820        1.3644688369
 H         -2.8518498551        1.7276195199        0.6934642939
 H         -2.7985125172        0.0479155046        1.2335278165
 H         -1.2627318691        1.2128451335       -1.1424829896
 H         -2.6877385188        0.1719610992       -1.2451786595
 H         -0.6935724654       -1.1662276918       -1.6294259309
 H         -1.3922620405       -1.6457903555       -0.0603974090
 H          3.0156986945       -0.1649667173        0.0703024179
 H          2.2601521589        1.2520521597        0.8264742089
 H          2.8473772542        1.3578754947       -0.8649441909
  17
        -23.95451310
 C         -2.2270042218        0.6865421657       -0.8498943530
 C         -1.7838968821        0.5347730528        0.6002371131
 C         -0.8893932804       -0.6965160160        0.7960169320
 C          0.4049947771       -0.5499470389        0.0389334681
 O          0.7514901319       -1.2517787320       -0.8890143126
 O          1.1340458680        0.4512204620        0.5162214208
 C          2.3916704171        0.7476379880       -0.0962566898
 H         -2.7964496903       -0.1836694599       -1.1677084482
 H         -2.8499484321        1.5693048698       -0.9664321589
 H         -1.3654818276        0.7823543634       -1.5082375117
 H         -2.6614601950        0.4297562350        1.2388477862
 H         -1.2353603409        1.4232710448        0.9161559321
 H         -1.3922210030       -1.5951576811        0.4392836192
 H         -0.6499890836       -0.8049876572        1.8541178037
 H          3.0995704621        0.9274091101        0.7090405371
 H          2.2789549809        1.6414306859       -0.7091451184
 H          2.7100431556       -0.0914648850       -0.7159873801
  17
        -23.95450986
 C         -3.1037593697        0.7132951889        0.0099759860
 C         -1.6675878086        0.4910851235       -0.4463818122
 C         -0.8659556040       -0.2880903127        0.6076237288
 C          0.5350223680       -0.5032945784        0.1060377836
 O          0.9205876037       -1.4862377909       -0.4924081245
 O          1.3140562224        0.5412636655        0.3634713610
 C          2.6634531617        0.4946697468       -0.1071527081
 H         -3.6549946561        1.2656847112       -0.7459952601
 H         -3.6028181152       -0.2381270853        0.1747233970
 H         -3.1248884431        1.2799584662        0.9371227453
 H         -1.1822840737        1.4530203671       -0.6212796340
 H         -1.6594271069       -0.0686446607       -1.3840615179
 H         -1.3291057163       -1.2591041064        0.7801476807
 H         -0.8291699752        0.2831417517        1.5343104806
 H          2.6772173984        0.4951367351       -1.1976072488
 H          3.1527400227       -0.4109887666        0.2531763858
 H          3.1431599725        1.3839216817        0.2891117292
  17
        -23.95450275
 C         -3.1034493599        0.7125647928        0.0093047186
 C         -1.6707433831        0.4791111648       -0.4522906590
 C         -0.8603806662       -0.2729753336        0.6145363460
 C          0.5350568915       -0.5053465628        0.1034121166
 O          0.8976366759       -1.4950964079       -0.4988712700
 O          1.3220021577        0.5311488195        0.3625165164
 C          2.6766936930        0.5119263813       -0.0984443994
 H         -3.6601911985        1.2470090228       -0.7554821372
 H         -3.6014080710       -0.2344684994        0.2003771020
 H         -3.1175332579        1.3011609701        0.9228184284
 H         -1.1875984861        1.4366578687       -0.6550373314
 H         -1.6690866778       -0.1039426326       -1.3756496748
 H         -1.3240292746       -1.2380870949        0.8163959541
 H         -0.8132700283        0.3219625650        1.5256131373
 H          2.9234702549       -0.4792122274       -0.4804975926
 H          3.3080629492        0.7681187703        0.7492490683
 H          2.7794798060        1.2560663145       -0.8868334156
  17
        -23.95450554
 C         -3.1184343503        0.6567355062        0.1329691143
 C         -1.7264429975        0.1589235352        0.5000521880
 C         -0.7941440771        0.1697852566       -0.7210628782
 C          0.5541096657       -0.3612254768       -0.3174450092
 O          0.8675087056       -1.5340650584       -0.3240212615
 O          1.3541014804        0.6150753498        0.0914459461
 C          2.6646483959        0.2926249358        0.5677756683
 H         -3.0706318659        1.6737451880       -0.2472646368
 H         -3.5609209969        0.0223996835       -0.6306774050
 H         -3.7626224862        0.6441628144        1.0077979478
 H         -1.7869788047       -0.8592408344        0.8901202243
 H         -1.3004300608        0.7949525686        1.2782310627
 H         -0.6820428848        1.1882066778       -1.0901793593
 H         -1.2042540793       -0.4724441428       -1.4999569555
 H          3.3888178302        0.7270238131       -0.1193381967
 H          2.7860351043       -0.7901881884        0.6123546734
 H          2.7691302851        0.7335250730        1.5568363719
  17
        -23.95451874
 C         -2.2270918507        0.6906286418       -0.8481871295
 C         -1.7830029515        0.5351093864        0.6011869258
 C         -0.8898719743       -0.6975938315        0.7936578611
 C          0.4059621002       -0.5527254375        0.0384519284
 O          0.7526682484       -1.2571266162       -0.8875556624
 O          1.1314531568        0.4523944797        0.5120661930
 C          2.3920453695        0.7509455423       -0.0938926152
 H         -2.8514586156        1.5728059257       -0.9614806654
 H         -1.3661261610        0.7898885593       -1.5067660942
 H         -2.7955632985       -0.1794349678       -1.1681835715
 H         -2.6601536946        0.4295092921        1.2403023265
 H         -1.2333893823        1.4223482497        0.9185960906
 H         -1.3937129520       -1.5947846744        0.4346418727
 H         -0.6512412579       -0.8093261236        1.8516301058
 H          2.5621545763        0.0871638605       -0.9423274486
 H          3.1656182764        0.6109300688        0.6590305631
 H          2.3640860458        1.7892346832       -0.4186873654
  17
        -23.95448303
 C         -3.2481602923        0.4804631466        0.0532582490
 C         -1.9406833460       -0.3002237513        0.0266978670
 C         -0.7317162318        0.6348473951        0.0046689901
 C          0.5623385248       -0.1191387070       -0.1509351853
 O          0.6930395448       -1.1682468001       -0.7457574465
 O          1.5651295980        0.5239674132        0.4381629170
 C          2.8851457452       -0.0250971119        0.3636719289
 H         -4.0929839424       -0.2019511451        0.0834429268
 H         -3.2907662641        1.1209637124        0.9304800587
 H         -3.3394519029        1.1024482024       -0.8335476830
 H         -1.9027949641       -0.9419963135       -0.8553170708
 H         -1.8782682774       -0.9464060359        0.9043866820
 H         -0.6754793423        1.2414104284        0.9083760102
 H         -0.8103425641        1.3108767130       -0.8509040638
 H          2.8998119828       -0.8590531272       -0.3388092644
 H          3.1688935795       -0.3658284562        1.3582039378
 H          3.5465028867        0.7723890863        0.0328240332
  17
        -23.95444578
 C         -3.1673408813        0.5655708271        0.1309494842
 C         -1.8011035801       -0.0392612115        0.4262949214
 C         -0.7566376976        0.4178314406       -0.6020554911
 C          0.5608740020       -0.2479093463       -0.3108327104
 O          0.7952431817       -1.4254800748       -0.4895101018
 O          1.4342175902        0.6084545827        0.2034055706
 C          2.7334995674        0.1402685614        0.5801875744
 H         -3.8913353345        0.2325358593        0.8693980723
 H         -3.1172190031        1.6508520382        0.1605356894
 H         -3.5137213193        0.2619471947       -0.8534563821
 H         -1.8614750031       -1.1292243655        0.4038364026
 H         -1.4747292085        0.2593244889        1.4244871399
 H         -0.6272205587        1.4981657668       -0.5579249590
 H         -1.0814957492        0.1201433345       -1.5994616787
 H          2.9219384345        0.4964257704        1.5903347925
 H          3.4613386154        0.5600247655       -0.1125040853
 H          2.7598752674       -0.9491898931        0.5405209707
  17
        -23.95442439
 C         -3.1835251550        0.5745718893        0.0263807571
 C         -1.7824802763        0.2963849615       -0.5021086060
 C         -0.8126811160       -0.0318540615        0.6408514781
 C          0.5410305621       -0.3814652647        0.0839485915
 O          0.7746440198       -1.3514894008       -0.6075026264
 O          1.4538294051        0.5190979951        0.4252782173
 C          2.8007690379        0.3604811295       -0.0328642372
 H         -3.5728130609       -0.2944743715        0.5504202308
 H         -3.1702075401        1.4160300281        0.7142107886
 H         -3.8537108096        0.8104916061       -0.7955887866
 H         -1.4142108279        1.1688862884       -1.0453451556
 H         -1.8035967073       -0.5464143313       -1.1957976009
 H         -1.1886335026       -0.8965634899        1.1895264888
 H         -0.7104979447        0.8173649933        1.3148953301
 H          3.0471887276        1.2242766815       -0.6473796723
 H          2.8878433592       -0.5588351583       -0.6129064507
 H          3.4438941939        0.3232122579        0.8440746798
  17
        -23.95441370
 C         -3.2280305127        0.4787680425        0.0772107097
 C         -1.8935871670       -0.2387299639        0.2317107207
 C         -0.7322547456        0.6276177997       -0.2657038780
 C          0.5644833252       -0.1365803534       -0.2319650196
 O          0.7276577915       -1.2464942226       -0.6948837612
 O          1.5219989410        0.5586831232        0.3700263959
 C          2.8308642842       -0.0102069794        0.4836835824
 H         -4.0350364459       -0.1462365194        0.4494134473
 H         -3.2259150731        1.4100967707        0.6376263352
 H         -3.4211703240        0.7046834825       -0.9682781591
 H         -1.8997728869       -1.1713822440       -0.3355665103
 H         -1.7300482032       -0.4895752033        1.2815875558
 H         -0.6250305329        1.5300899870        0.3347627703
 H         -0.9189349656        0.9108631029       -1.3039188865
 H          3.5384905409        0.7515077440        0.1651277502
 H          2.9041166450       -0.8980446583       -0.1452936274
 H          3.0001487889       -0.2741794596        1.5266121978
  17
        -23.95440176
 C         -3.1818268974        0.5728851407        0.0183963484
 C         -1.7718093702        0.3184379898       -0.4981104717
 C         -0.8191168092       -0.0547319065        0.6460760564
 C          0.5405379649       -0.3828425824        0.0924885819
 O          0.7958154306       -1.3415077161       -0.6064436539
 O          1.4470777488        0.5254234809        0.4355998959
 C          2.7807680673        0.3488129421       -0.0502625195
 H         -3.1823490613        1.3876816559        0.7377730819
 H         -3.8397156987        0.8379518585       -0.8046183116
 H         -3.5765045992       -0.3164916971        0.5029113377
 H         -1.3964777184        1.2127492824       -0.9994783725
 H         -1.7806562738       -0.4959018833       -1.2253702673
 H         -1.2039731344       -0.9387681864        1.1561647103
 H         -0.7254389235        0.7693433717        1.3517945862
 H          3.3300084228        1.2264623190        0.2750676584
 H          2.7737015446        0.2682523446       -1.1378265768
 H          3.2112728062       -0.5607731333        0.3698419096
  17
        -23.95439758
 C         -3.2153444794        0.4964468073        0.0996907591
 C         -1.8766146956       -0.2079491505        0.2758911900
 C         -0.7355973149        0.5978300188       -0.3550280406
 C          0.5648975792       -0.1537996009       -0.2562579865
 O          0.7424343476       -1.2882852537       -0.6492717980
 O          1.5045998224        0.5753070783        0.3336044795
 C          2.8085004898        0.0125194853        0.5124195415
 H         -3.1919165148        1.4786933961        0.5645120090
 H         -3.4465754980        0.6186259727       -0.9553455200
 H         -4.0082708192       -0.0852936710        0.5614622414
 H         -1.9059323936       -1.1947572531       -0.1902000364
 H         -1.6718802048       -0.3476375746        1.3391645040
 H         -0.6211215572        1.5651676668        0.1324287552
 H         -0.9518194377        0.7510428957       -1.4142359808
 H          3.4657113253        0.3951225121       -0.2679102735
 H          2.7545298516       -1.0750670692        0.4516151870
 H          3.1537196318        0.3332903213        1.4918321256
  17
        -23.95438337
 C         -3.2016739574        0.5418605200        0.0368176786
 C         -1.8072330774        0.2576832256       -0.5058829472
 C         -0.8049002717        0.0235320714        0.6310737042
 C          0.5428520341       -0.3488532121        0.0742832497
 O          0.7616995566       -1.3158291665       -0.6258046088
 O          1.4786786873        0.5201969649        0.4369303098
 C          2.8203065334        0.3141652414       -0.0166119890
 H         -3.1893938251        1.4230258645        0.6732249525
 H         -3.8939574160        0.7168040016       -0.7821004101
 H         -3.5632170416       -0.3010371075        0.6201042209
 H         -1.4704109386        1.1000585255       -1.1133436148
 H         -1.8252353164       -0.6283884565       -1.1434690921
 H         -1.1551008112       -0.8059827287        1.2478237207
 H         -0.6986234465        0.9160372412        1.2461443027
 H          3.4689682175        0.6996236613        0.7649038595
 H          2.9715241891        0.8632300742       -0.9458391725
 H          2.9957225350       -0.7486142318       -0.1871504959
  17
        -23.95424262
 C         -3.0708490353        0.7923484321        0.0564062183
 C         -1.5473582277        0.8319425258        0.0831618726
 C         -0.9612237104       -0.5678953909       -0.0768625184
 C          0.5430520695       -0.6236818704       -0.0658199621
 O          1.1830499371       -1.6515257371       -0.1776030583
 O          1.1119198471        0.5654696782        0.0770605539
 C          2.5403138436        0.6159387393        0.0975938847
 H         -3.4513902212        0.1721039456        0.8641862840
 H         -3.4761057377        1.7937501003        0.1717068588
 H         -3.4260733078        0.3839647376       -0.8864947084
 H         -1.2064253489        1.2610039888        1.0262339467
 H         -1.1813808607        1.4711639575       -0.7212812121
 H         -1.2901777759       -1.0175178145       -1.0171063385
 H         -1.3113414768       -1.2257093915        0.7225277085
 H          2.9211707000        0.0522818281        0.9499330988
 H          2.7939372015        1.6679410417        0.1799951399
 H          2.9426969128        0.1844255842       -0.8195881379
  17
        -23.95422670
 C         -3.0656467172        0.7988226085        0.0558836420
 C         -1.5418915257        0.8360487759        0.0616358243
 C         -0.9607695011       -0.5704710439       -0.0508632807
 C          0.5438884049       -0.6331709555       -0.0584265203
 O          1.1717250800       -1.6675243901       -0.1821655572
 O          1.1127950459        0.5550418743        0.0792755721
 C          2.5406047792        0.6415182353        0.0894193703
 H         -3.4369469852        0.2125104735        0.8927742557
 H         -3.4676799814        1.8049509095        0.1357470017
 H         -3.4335662017        0.3535151407       -0.8651650193
 H         -1.1881497020        1.3011652559        0.9825186380
 H         -1.1854097172        1.4422187004       -0.7721171811
 H         -1.3049933628       -1.0581784490       -0.9661150106
 H         -1.3001414351       -1.1930715036        0.7808486541
 H          2.8755667723        0.7622775652        1.1191093746
 H          2.8045236317        1.5153549544       -0.5007761305
 H          2.9715974354       -0.2649804762       -0.3372190063
  17
        -23.95416174
 C         -3.0756733803        0.7862331181        0.0730138583
 C         -1.5708445394        0.7963207107       -0.1674039298
 C         -0.9471453457       -0.5468169378        0.2112889495
 C          0.5422177487       -0.6124925184        0.0025542580
 O          1.1513118310       -1.6336361697       -0.2486237030
 O          1.1382170870        0.5646502828        0.1423226713
 C          2.5590204204        0.6062079975       -0.0097528759
 H         -3.5084963896        1.7423016784       -0.2081679773
 H         -3.5515502807        0.0063202950       -0.5164762497
 H         -3.2933776867        0.6047364292        1.1225057025
 H         -1.1074532898        1.5877672619        0.4219923317
 H         -1.3690481815        1.0025562232       -1.2199478900
 H         -1.3965671422       -1.3642045205       -0.3550214081
 H         -1.1244861398       -0.7471037927        1.2715898515
 H          3.0331005440       -0.0314610829        0.7373328196
 H          2.8372928804        1.6459080722        0.1298211171
 H          2.8384871260        0.2544200189       -1.0034884992
  17
        -23.95414734
 C         -3.0705913693        0.7913406199        0.0575684093
 C         -1.5837204318        0.6848101617        0.3732026216
 C         -0.9247642339       -0.4195916210       -0.4556582581
 C          0.5454632693       -0.5868549524       -0.1743550977
 O          1.1144105968       -1.6602332765       -0.1445523177
 O          1.1564885988        0.5725799376        0.0247916570
 C          2.5619058311        0.5797265522        0.2913720393
 H         -3.2221367742        1.0298489174       -0.9920877645
 H         -3.5746633709       -0.1476035075        0.2730270173
 H         -3.5277969271        1.5727761273        0.6581396366
 H         -1.4496490995        0.4656850112        1.4340691006
 H         -1.0910791785        1.6342107403        0.1624066450
 H         -1.0217759038       -0.1833696277       -1.5184258918
 H         -1.4068794349       -1.3823937630       -0.2808748706
 H          2.7220773764        1.2598807421        1.1244256099
 H          3.0804053682        0.9379992426       -0.5971036193
 H          2.8982321447       -0.4275458721        0.5396076996
  17
        -23.95348720
 C         -2.6368836093        0.0221835560       -0.8359040028
 C         -2.0024897439       -0.3701961004        0.4927694082
 C         -0.7698552455        0.4777529481        0.8295182839
 C          0.4333369633        0.1279482531       -0.0069018623
 O          0.4466265559       -0.0759669054       -1.2019543250
 O          1.5331182981        0.0713543791        0.7423260048
 C          2.7674436802       -0.2255063917        0.0843509579
 H         -3.4885003331       -0.6178730532       -1.0509092856
 H         -2.9787246165        1.0540802345       -0.8048708225
 H         -1.9146642456       -0.0786607517       -1.6417069854
 H         -1.7168847121       -1.4234191074        0.4630147914
 H         -2.7317980593       -0.2423135964        1.2939082746
 H         -0.4878515916        0.3581899101        1.8753150778
 H         -0.9984689046        1.5306139881        0.6492580300
 H          2.7073400657       -1.2020285613       -0.3975405437
 H          3.5232070541       -0.2198341393        0.8631658557
 H          2.9776426666        0.5309528517       -0.6726111098
  17
        -23.95346117
 C         -2.6557681310       -0.3337006864       -0.7443117088
 C         -1.9979081748        0.5817045774        0.2811140150
 C         -0.7708057485       -0.0590411393        0.9396802876
 C          0.4310685624       -0.1091387601        0.0316360814
 O          0.4240224395       -0.3745904252       -1.1514514540
 O          1.5401863525        0.1730225973        0.7108441478
 C          2.8000831408        0.1478994404        0.0324194945
 H         -3.5049034399        0.1645052619       -1.2046674160
 H         -1.9447649970       -0.5976568418       -1.5227275124
 H         -3.0061139995       -1.2477042280       -0.2703315212
 H         -2.7175763316        0.8233857861        1.0646007580
 H         -1.7003190576        1.5142495025       -0.2021623188
 H         -1.0086467644       -1.0878822485        1.2200761214
 H         -0.4803903372        0.4838096218        1.8389606966
 H          3.4670005632       -0.4858164452        0.6127339724
 H          3.1837748806        1.1661073183       -0.0080404090
 H          2.6697018604       -0.2470584826       -0.9757599850
  17
        -23.95283942
 C         -2.0478336368        1.4952704981        0.0966314083
 C         -1.9367193477        0.0461249050       -0.3622883766
 C         -0.9963779465       -0.7917478941        0.5145901755
 C          0.4625296067       -0.6608134143        0.1616818581
 O          1.2273561325       -1.6030742276        0.0919732265
 O          0.8454521270        0.5892346487       -0.0613331982
 C          2.2156494283        0.8068705846       -0.4044626143
 H         -2.7178927043        2.0436117103       -0.5604441482
 H         -2.4439898261        1.5425412577        1.1082362647
 H         -1.0755127197        1.9779699119        0.0817924514
 H         -1.5919910065        0.0122157460       -1.3972173170
 H         -2.9261946109       -0.4123092473       -0.3274409602
 H         -1.2386555437       -1.8524710798        0.4404424586
 H         -1.1095226233       -0.4899709751        1.5582662071
 H          2.8533337995        0.5753976218        0.4494576671
 H          2.2899388071        1.8562209392       -0.6718981310
 H          2.4983022371        0.1664945369       -1.2408920390
