  17
        -19.24410005
 C         -1.4670801436        0.0005672078        0.2358343699
 C         -0.7278603122        1.2511111587       -0.2370965322
 C          0.7304292093        1.1982090960        0.2345312988
 N          1.4250329356       -0.0004912646       -0.1980173185
 C          0.7295217018       -1.1987857199        0.2344484359
 C         -0.7288349539       -1.2505922044       -0.2370043058
 H         -2.4917993790        0.0009571125       -0.1429176075
 H         -1.5119578440        0.0006485481        1.3277638032
 H         -0.7525294062        1.2984887232       -1.3295496590
 H         -1.2117940918        2.1490066776        0.1508171902
 H          1.2834561914        2.0655670448       -0.1346522634
 H          0.7601688841        1.2143684294        1.3286940905
 H          1.4908037888       -0.0005492815       -1.2128519966
 H          1.2819000688       -2.0664718245       -0.1349685878
 H          0.7593543249       -1.2151354087        1.3285803414
 H         -0.7535278667       -1.2980309028       -1.3294457794
 H         -1.2134483853       -2.1480941512        0.1509832210
  17
        -19.24180369
 C         -1.4689273611        0.0005541221        0.2108055805
 C         -0.7181147080        1.2446633236       -0.2542179978
 C          0.7220621381        1.1992005911        0.2503738303
 N          1.3633164491       -0.0004971794       -0.2547316414
 C          0.7211055633       -1.1997890289        0.2503726465
 C         -0.7189848880       -1.2441041597       -0.2541964783
 H         -2.4856208980        0.0009624189       -0.1868342650
 H         -1.5337775568        0.0006226989        1.3021418850
 H         -0.7046918384        1.2727710844       -1.3445958380
 H         -1.2087147001        2.1485594779        0.1111250412
 H          1.2772017189        2.0660410385       -0.1170600376
 H          0.7178108141        1.2357380859        1.3562814926
 H          2.3479095005       -0.0009789437       -0.0075156870
 H          1.2757138001       -2.0669999448       -0.1170292330
 H          0.7169122698       -1.2362430127        1.3563090205
 H         -0.7056018586       -1.2721609226       -1.3446180416
 H         -1.2103488979       -2.1476572622        0.1110179991
  17
        -19.23569647
 C         -1.3662558732        0.0334181484       -0.4254156355
 C         -0.7399242810        1.1822581814        0.3606920977
 C          0.7747638920        1.2459546745        0.0685840038
 N          1.3389333629       -0.0252027448       -0.3604573935
 C          0.7335080178       -1.1343311215        0.3487031272
 C         -0.7706184144       -1.3013546628        0.0384625839
 H         -1.1711837483        0.1814055526       -1.4910984145
 H         -2.4491441568        0.0258361297       -0.2910145220
 H         -1.2116192459        2.1290264428        0.0948139682
 H         -0.9099568755        1.0119690952        1.4254168110
 H          0.9841872810        1.9850351176       -0.7071804268
 H          1.3105159185        1.5525273173        0.9739541894
 H          1.1931254540       -0.1535789787       -1.3570820121
 H          1.2799172593       -2.0449715597        0.0919091929
 H          0.8803039450       -0.9454809050        1.4155424003
 H         -0.9156301859       -2.0533176094       -0.7397752654
 H         -1.2890216835       -1.6473956883        0.9339566425
