  17
        -19.24410005
 C         -1.4670801436        0.0005672078        0.2358343699
 C         -0.7278603122        1.2511111587       -0.2370965322
 C          0.7304292093        1.1982090960        0.2345312988
 N          1.4250329356       -0.0004912646       -0.1980173185
 C          0.7295217018       -1.1987857199        0.2344484359
 C         -0.7288349539       -1.2505922044       -0.2370043058
 H         -2.4917993790        0.0009571125       -0.1429176075
 H         -1.5119578440        0.0006485481        1.3277638032
 H         -0.7525294062        1.2984887232       -1.3295496590
 H         -1.2117940918        2.1490066776        0.1508171902
 H          1.2834561914        2.0655670448       -0.1346522634
 H          0.7601688841        1.2143684294        1.3286940905
 H          1.4908037888       -0.0005492815       -1.2128519966
 H          1.2819000688       -2.0664718245       -0.1349685878
 H          0.7593543249       -1.2151354087        1.3285803414
 H         -0.7535278667       -1.2980309028       -1.3294457794
 H         -1.2134483853       -2.1480941512        0.1509832210
