! pbe def2-sv(p) def2/J RI DEFGRID1 loosescf d4 GCP(DFT/SV(P)) printgap
%output
    printlevel normal
end
* xyz 0 1
C -0.3900771357 -2.407438504 0.7711121996
C 0.0771072541 -1.3475022538 -0.2118884182
O 1.085676105 -0.5893626134 0.4319653418
C 1.6010640309 0.4900753944 -0.1743480707
O 1.2748036153 0.8419283809 -1.2855513796
C 2.590373254 1.176373648 0.7083144798
O -1.0065171857 -0.5554072178 -0.6867934794
C -1.5091550051 0.4595576868 0.0291649267
O -1.1127353556 0.7763641524 1.1274778942
C -2.5977909244 1.147008328 -0.731656525
H -0.7831213634 -1.9202634925 1.6598124026
H 0.4535607615 -3.0301790724 1.0475337824
H -1.1632698422 -3.0104468917 0.3067082357
H 0.4849543804 -1.7844998567 -1.1345338974
H 3.2363751426 0.4402822996 1.1763266302
H 3.1610541884 1.8954172696 0.1304730325
H 2.0378578408 1.690129291 1.4930902153
H -2.1356396887 1.7434280193 -1.5159732949
H -3.2406625769 0.4092381215 -1.2009912384
H -3.1576020939 1.7932366779 -0.0639465779
*
