! r2scan-3c def2/J RI DEFGRID2 scfconv6 printgap
%output
    printlevel normal
end
* xyz 0 1
C 3.0391979578 -0.9598321347 0.9620497834
C 2.5973232203 0.0963568336 -0.0045437105
C 3.4669685886 0.8693362523 -0.6371357476
C 1.1126989922 0.2542904231 -0.2305333143
H 0.9684894108 0.8687210722 -1.1253028601
C 0.3899642766 -1.0776406321 -0.4511869905
C -1.0495763407 -0.8111184617 -0.8789133615
C -1.7203048626 0.1618802999 0.0485495456
C -1.0251194719 0.9630292577 0.8716276506
C 0.4565936046 0.9854203044 0.9496332468
C -3.1692770815 0.214691302 0.0407077134
O -3.9007561466 -0.4752128627 -0.6473012632
H 2.8737000659 -1.9486543678 0.5372704307
H 4.0977263768 -0.855219283 1.1830885827
H 2.4801989474 -0.8996582746 1.8932771998
H 3.1556611933 1.620803275 -1.3432427108
H 4.5284267385 0.7820393947 -0.4776992639
H 0.8999665773 -1.6582856219 -1.2208018887
H 0.3881799598 -1.6552962374 0.4735268325
H -1.0756476183 -0.4021195079 -1.8933290201
H -1.6320378119 -1.7351305802 -0.8973102217
H -1.5539956607 1.6331924123 1.5364464905
H 0.8061028793 2.0193727472 0.9933563169
H 0.7514490591 0.5177530758 1.8943755236
H -3.60850176 0.9569493968 0.7342712133
*
