! pbe def2-sv(p) def2/J RI DEFGRID1 loosescf d4 GCP(DFT/SV(P)) printgap
%output
    printlevel normal
end
* xyz 0 1
C -3.7513739714 0.8571889631 -1.2480776242
C -3.0271335162 0.1803821537 -0.1007094506
O -1.6154786144 0.266327412 -0.3473815502
C -0.8063125561 -0.2838699709 0.5521429279
O -1.2218476306 -0.8435688496 1.5533283212
C 0.6247002812 -0.1466964764 0.2139654452
C 1.0420035425 0.5042928284 -0.9459078789
C 2.3918349137 0.6099754676 -1.2241937833
C 3.3280780694 0.0713945223 -0.3544099365
C 2.9166069469 -0.5768546278 0.8002693574
C 1.5693003541 -0.6867208484 1.0857381047
H -4.8215673886 0.8019897926 -1.0783686497
H -3.4518564652 1.8989129101 -1.3140935694
H -3.5104642426 0.3619186842 -2.184058157
H -3.2992934637 -0.8770195446 -0.0136715693
H -3.2406294135 0.6645795026 0.8582971634
H 0.3051887746 0.9192763459 -1.6145878401
H 2.715910446 1.1136314894 -2.1213753533
H 4.3804831314 0.1567010785 -0.5766670816
H 3.6452221619 -0.9960507012 1.4764820552
H 1.2207548586 -1.1859253609 1.9775105104
*
