  13
  -22.3389590100000       0.500007936461027      !mtd9
 C          0.4087245609       -1.2858074336        0.0000039783
 C          1.7598876757       -0.9760056267       -0.0002188659
 N          2.2205888554        0.2628183393       -0.0001515622
 C          1.3523685440        1.2601558466        0.0000827083
 C         -0.0201067814        1.0716906078        0.0002434191
 C         -0.5076416763       -0.2354465640        0.0002248436
 C         -1.9597773735       -0.4922059305        0.0003954894
 O         -2.8103246017        0.3569719475       -0.0005108742
 H          0.0725562069       -2.3118026408       -0.0000230581
 H          2.5125090137       -1.7534041322       -0.0004054159
 H          1.7824917500        2.2528362423        0.0001208902
 H         -0.7115286025        1.8998545690        0.0003922765
 H         -2.2198163305       -1.5696663925        0.0014131216
  13
  -22.3389589800000       0.499992063538973      !mtd5
 C          0.1431117612       -1.0623110332       -0.0002372495
 C          1.5283023923       -1.0398800053       -0.0004568762
 N          2.2347444476        0.0779037389       -0.0001962931
 C          1.5909904882        1.2322616202        0.0003477712
 C          0.2084318031        1.3330097311        0.0005660561
 C         -0.5375354500        0.1554907529        0.0003141781
 C         -2.0118379432        0.1885134566        0.0005336755
 O         -2.7233937227       -0.7801319954       -0.0007371162
 H         -0.4143228675       -1.9859526653       -0.0005735642
 H          2.1044058284       -1.9556238490       -0.0003709689
 H          2.2166365356        2.1150022119        0.0004089480
 H         -0.2798924250        2.2959310769        0.0008748669
 H         -2.4326830477        1.2139226679        0.0013676635
