  24
        -60.88558471
 C          2.8601682220        0.0002753314        1.1867262629
 C          1.9753514721        1.2282190864        1.4032624149
 H          2.1201196807        1.6297158674        2.4083739280
 C          0.5004952073        0.7799431954        1.2860209317
 H         -0.0304651660        1.1739822782        2.1548456810
 C          0.5006511095       -0.7798316415        1.2859940202
 H         -0.0303216115       -1.1739866439        2.1547579940
 C          1.9755841223       -1.2278133439        1.4033859580
 H          2.1203437930       -1.6290977431        2.4085859686
 Cl         2.4885593333       -2.5394766968        0.3139309093
 C         -0.3857226395       -1.1212884320        0.0499921718
 C         -1.7777767957       -0.6685044098        0.4861655914
 C         -1.7779049830        0.6681211129        0.4863248715
 C         -0.3860021667        1.1212902662        0.0500912193
 C         -0.0732867372        0.0000853440       -0.9665473552
 Cl         1.5314725081        0.0001765448       -1.6546820834
 Cl        -1.2231362545       -0.0000100529       -2.3237060228
 Cl        -0.3842357289        2.7606447549       -0.5636604654
 Cl        -2.9950597155        1.7420475996        0.9505400487
 Cl        -2.9946509824       -1.7428269976        0.9501179995
 Cl        -0.3835579725       -2.7605496303       -0.5639814887
 Cl         2.4880170065        2.5397903986        0.3135353453
 H          3.7040069681        0.0003873599        1.8745355596
 H          3.2598706966        0.0002605789        0.1747260529
