! r2scan-3c def2/J RI DEFGRID2 scfconv6 printgap
%output
    printlevel normal
end
* xyz 0 1
C -2.3443321463 0.9950397408 -0.5430573037
C -1.804414306 0.1513294178 0.6158248682
C -0.5274814142 -0.521006229 0.1818783661
O -0.4701898749 -1.5856711154 -0.4000356835
O 0.5329344056 0.2125988134 0.4818065332
C 1.8375642602 -0.2416289855 0.0810167896
C 2.6664262401 0.9583255858 -0.3408482828
H -3.2840158354 1.4557977614 -0.2541973697
H -1.6353070612 1.7763640583 -0.8041975264
H -2.5135987579 0.3689233178 -1.415948012
H -2.5273353787 -0.6193367034 0.8810101711
H -1.5952174324 0.7864948922 1.4749917948
H 2.2848830594 -0.7466027502 0.9422706819
H 1.7190408884 -0.9644264193 -0.7324331595
H 3.6681431228 0.6290102689 -0.5965651684
H 2.2194033733 1.4421597454 -1.2048697656
H 2.7205256623 1.674628009 0.4737038658
*
