  9
  -34.7698441500000       0.333341563710542      !md2
 C          0.2602821391       -0.5454033331       -0.0001135004
 C          1.3972037565        0.1499118737        0.0000168961
 F          2.5997199967       -0.3695693881        0.0000375295
 F          1.4359126790        1.4618187245       -0.0000318033
 C         -1.1107146532        0.1067171598       -0.0000434653
 F         -1.2833197193        0.8886866818       -1.0717279782
 F         -2.0752105177       -0.8022306654       -0.0029076990
 F         -1.2854492041        0.8840869917        1.0747096927
 F          0.2626718985       -1.8802260172        0.0000088118
  9
  -34.7698441400000       0.333338036325682      !md2
 C          0.2838095028       -0.4236039391        0.3241122207
 C          1.3773308043        0.0469382116       -0.2748496080
 F          2.5933814252       -0.4023416686       -0.0866526878
 F          1.3537953829        1.0349166142       -1.1385722004
 C         -1.1057155226        0.1332314172        0.0706104339
 F         -1.1797066162        1.4319056138        0.3832770565
 F         -1.4499376452        0.0282763572       -1.2179548121
 F         -2.0181262226       -0.5079445155        0.7866585809
 F          0.3494479432       -1.4309105198        1.1974589883
  9
  -34.7698440900000       0.333320399963775      !md1
 C          0.2837643436       -0.4238419798       -0.3243538621
 C          1.3771085917        0.0470425954        0.2747250132
 F          2.5932203838       -0.4023266731        0.0871378356
 F          1.3533685296        1.0350165450        1.1382802698
 C         -1.1055430702        0.1331825811       -0.0708066612
 F         -2.0176382085       -0.5030681559       -0.7916650273
 F         -1.4524338413        0.0223602351        1.2166420376
 F         -1.1772452122        1.4336167785       -0.3770769007
 F          0.3496426250       -1.4315814742       -1.1971775446
