! pbe def2-sv(p) def2/J RI DEFGRID1 loosescf d4 GCP(DFT/SV(P)) printgap
%output
    printlevel normal
end
* xyz 0 1
C -1.2745583432 0.2991364147 -0.1701618376
C 0.1483490937 0.6536464321 0.2761597027
C 1.1862670352 -0.2613833556 -0.3987485581
O 1.2204604725 -1.5461390606 0.171382203
O 0.3395570431 2.008524954 -0.0624772044
O -1.5503189246 -1.0413746577 0.1692655818
H -1.3422595538 0.455815803 -1.254397304
H -1.9686987092 0.9875325073 0.3261435718
H 0.2211034085 0.5058295402 1.3646970815
H 2.1890269071 0.1532215304 -0.262123604
H 0.9771752741 -0.3164793069 -1.4765621372
H 0.3098011726 -1.8838556805 0.2011358018
H 1.2031509015 2.3042708804 0.2578488675
H -2.4589039766 -1.2546335046 -0.0837932929
*
