! pbe def2-sv(p) def2/J RI DEFGRID1 loosescf d4 GCP(DFT/SV(P)) printgap
%output
    printlevel normal
end
* xyz 0 1
C 2.1842233108 -0.9250034537 -0.6165628826
C 1.2022903252 -0.1418037443 0.2503084534
C 1.7756261459 1.2260729589 0.6302499703
O 0.0001137622 -0.0012068498 -0.5005623017
C -1.2020848718 0.1413566765 0.2499667398
C -2.1825754164 0.9261368882 -0.6171140097
C -1.7775883702 -1.2256274102 0.6298304493
H 2.3677968797 -0.3790041351 -1.5376275789
H 3.1211402108 -1.0645063411 -0.0863981894
H 1.7650527851 -1.8951408977 -0.868533279
H 0.9940893026 -0.7127480893 1.1681959004
H 1.0630090184 1.7896563678 1.2282468045
H 1.9942246912 1.7922704385 -0.2714189112
H 2.6884873879 1.0983179383 1.2040350494
H -0.9932834377 0.7119000432 1.1679259118
H -3.1201160609 1.0654440365 -0.0880047927
H -1.7626342407 1.8963866938 -0.8673816582
H -2.3651848351 0.381318324 -1.5390700559
H -2.6901596379 -1.096491572 1.2037956815
H -1.0657014413 -1.7903260732 1.2276426058
H -1.997229018 -1.7914080814 -0.2718387035
*
