! r2scan-3c def2/J RI DEFGRID2 scfconv6 printgap
%output
    printlevel normal
end
* xyz 0 1
C -3.5528119808 -0.0233886915 -0.3459280739
C -2.2197602412 0.3955178136 0.2632836684
C -1.0989876218 -0.5720672013 -0.1123456205
C 0.2416658092 -0.2043298041 0.5234421939
C 1.3471901945 -1.2376330687 0.2025888525
C 2.4626420449 -0.4656339478 -0.5094875073
C 2.3069022367 0.9590546123 0.0118604367
C 0.792433794 1.143138716 0.0265545108
H -4.3373167603 0.6763511215 -0.068497862
H -3.4834961701 -0.0495266126 -1.4311730114
H -3.8365620626 -1.0141237148 0.0023341328
H -1.9659706442 1.3999019262 -0.0799281278
H -2.3131549251 0.4306716445 1.3512204863
H -1.3799367708 -1.5774127369 0.2121939132
H -0.9882292052 -0.5931442796 -1.1993757824
H 0.0997150968 -0.1537004974 1.6074490717
H 1.7268214848 -1.6787769701 1.1244103509
H 0.9651745342 -2.0468383297 -0.4187728152
H 3.4480681686 -0.8832502305 -0.3086372971
H 2.2989819992 -0.478165263 -1.5880895809
H 2.7031844803 1.0308907458 1.0260585648
H 2.8132769572 1.6948628552 -0.6113443643
H 0.4801909422 1.974119804 0.6570974409
H 0.4411817961 1.3317952784 -0.9895806776
*
