! r2scan-3c def2/J RI DEFGRID2 scfconv6 printgap
%output
    printlevel normal
end
* xyz 0 1
C 2.1966800216 -0.7472992747 0.5789162547
C 1.4144139064 0.4186175017 -0.0161122398
C 0.3305240817 -0.0250168373 -1.0088936057
C -1.0893358695 -0.0220437917 -0.4175684124
H -1.7899297294 -0.3034996126 -1.22312452
C -1.2635569699 -1.0071360478 0.7334165403
O -1.4468908953 1.2605983225 0.074219672
H 2.9404589516 -0.3799504288 1.282489215
H 2.7119034029 -1.295776601 -0.2069325302
H 1.5402641042 -1.4359043607 1.1028489778
H 0.9437226979 0.9958677212 0.7827612246
H 2.119139116 1.0808211722 -0.523127957
H 0.3304316962 0.6460912233 -1.871292941
H 0.5461414805 -1.0282685382 -1.3774723024
H -0.6467002186 -0.7070397307 1.5748739021
H -2.3012914419 -1.0039471592 1.0565986565
H -0.9908827426 -2.0081265621 0.4144059464
H -1.3679282459 1.9085653587 -0.6381215392
*
