! pbe def2-sv(p) def2/J RI DEFGRID1 loosescf d4 GCP(DFT/SV(P)) printgap
%output
    printlevel normal
end
* xyz 0 1
C -1.4563174097 0.1840218239 0.5847257608
C 0.0610163431 0.3841115332 0.5221340645
C 0.7584430393 -0.9056712083 0.0536932957
O 2.1585721665 -0.7506639138 -0.0377687153
O 0.3281598094 1.467905252 -0.3450589928
O -1.9132102069 -0.4250205461 -0.6015556952
H -1.9132445603 1.1711748525 0.7177225207
H -1.6896652009 -0.4466375579 1.4525447374
H 0.4123079509 0.6323910149 1.5349094021
H 0.3277444429 -1.2124910085 -0.9028774057
H 0.5785434773 -1.688799206 0.7928907517
H 2.37636742 -0.3355908167 -0.883300594
H 1.2729260733 1.6727773229 -0.3018432292
H -2.8798240455 -0.4092108252 -0.6138576353
*
