  13
        -24.18217451
 C         -1.9433951846        0.6482393287        0.0000199000
 C         -1.9088335035       -0.7363421100        0.0000098845
 C         -0.6914243823       -1.3959543309        0.0000002908
 C          0.4671199141       -0.6496933635       -0.0000058320
 C          0.4596026058        0.7437820049       -0.0000042176
 C         -0.7739916001        1.3857922459        0.0000066177
 O          1.6027907087        1.4695591451       -0.0000017477
 F          1.6792816315       -1.2731952840        0.0000030100
 H         -2.8921577274        1.1622780318       -0.0001346858
 H         -2.8251856990       -1.3049624396       -0.0001136470
 H         -0.6279721179       -2.4723689690       -0.0000343280
 H         -0.7886436808        2.4636169121       -0.0000547642
 H          2.3636567553        0.8725093229       -0.0000090748
  13
        -24.17829761
 C         -1.9481642388        0.6289392326        0.0000148532
 C         -1.8987309659       -0.7529993520        0.0000082947
 C         -0.6721479966       -1.3963434012       -0.0000019615
 C          0.4884281094       -0.6503221486       -0.0000069510
 C          0.4613490553        0.7460230516       -0.0000054472
 C         -0.7797567379        1.3710425249        0.0000063011
 O          1.6307771887        1.4313245116       -0.0000054011
 F          1.6771124260       -1.2863948104       -0.0000003152
 H         -2.8995614233        1.1381905494       -0.0000341047
 H         -2.8087013332       -1.3316992846       -0.0000323414
 H         -0.6000059807       -2.4722996462       -0.0000151780
 H         -0.8222332626        2.4520536239       -0.0000104893
 H          1.4575218197        2.3802605105        0.0000039742
