  17
        -23.95252615
 C         -3.1289335120        0.2267468683        0.1344974432
 C         -1.7001494155       -0.0741538827        0.5656818658
 C         -0.8337460795       -0.4566812857       -0.6316319592
 O          0.4853267178       -0.8255592084       -0.2298321170
 C          1.3665884155        0.1622961863       -0.0381457891
 O          1.1219727276        1.3265611675       -0.2111442705
 C          2.6920103531       -0.3854495361        0.4234169884
 H         -3.1467759369        1.0519690407       -0.5732524853
 H         -3.5779975140       -0.6434261492       -0.3392255511
 H         -3.7320541798        0.4996027050        0.9963515562
 H         -1.6903324489       -0.8957561116        1.2851683581
 H         -1.2644747613        0.8045767929        1.0448094132
 H         -1.2362737388       -1.3360597884       -1.1392597552
 H         -0.7713637672        0.3822526067       -1.3328533653
 H          2.8127079793       -1.4103050429        0.0873942090
 H          2.7137563633       -0.3653867541        1.5115360155
 H          3.4959260189        0.2426931465        0.0512980907
