  17
        -23.95252615
 C         -3.1289335120        0.2267468683        0.1344974432
 C         -1.7001494155       -0.0741538827        0.5656818658
 C         -0.8337460795       -0.4566812857       -0.6316319592
 O          0.4853267178       -0.8255592084       -0.2298321170
 C          1.3665884155        0.1622961863       -0.0381457891
 O          1.1219727276        1.3265611675       -0.2111442705
 C          2.6920103531       -0.3854495361        0.4234169884
 H         -3.1467759369        1.0519690407       -0.5732524853
 H         -3.5779975140       -0.6434261492       -0.3392255511
 H         -3.7320541798        0.4996027050        0.9963515562
 H         -1.6903324489       -0.8957561116        1.2851683581
 H         -1.2644747613        0.8045767929        1.0448094132
 H         -1.2362737388       -1.3360597884       -1.1392597552
 H         -0.7713637672        0.3822526067       -1.3328533653
 H          2.8127079793       -1.4103050429        0.0873942090
 H          2.7137563633       -0.3653867541        1.5115360155
 H          3.4959260189        0.2426931465        0.0512980907
  17
        -23.95235157
 C         -2.4595515610       -0.4534108744        0.9268076812
 C         -1.8574336275        0.4840506247       -0.1124142798
 C         -0.8473661211       -0.2322561791       -1.0059671355
 O          0.2689641101       -0.7156365309       -0.2586764600
 C          1.2588776227        0.1476358420       -0.0100420609
 O          1.2780450763        1.2838049735       -0.4030176251
 C          2.3339607447       -0.4974842305        0.8260739513
 H         -3.1411610247        0.0885213616        1.5775006749
 H         -3.0094854097       -1.2567815279        0.4414696765
 H         -1.6750929853       -0.8948978978        1.5368095802
 H         -1.3535839328        1.3168332729        0.3816271371
 H         -2.6430979204        0.8941004988       -0.7488749582
 H         -1.2908461052       -1.1194619544       -1.4628862787
 H         -0.4837110563        0.4487634077       -1.7825684427
 H          2.2878086636       -1.5774973483        0.7303526290
 H          2.1728361912       -0.2244808543        1.8674061366
 H          3.3066115562       -0.1224749483        0.5213142872
  17
        -23.95231366
 C         -2.4966857658       -0.3817153247       -0.8858597133
 C         -1.8584435093        0.4714372261        0.2031992084
 C         -0.8187884705       -0.3115104210        1.0018988210
 O          0.2721950233       -0.7291321141        0.1809417821
 C          1.2578749983        0.1505357536       -0.0214567172
 O          1.2849239265        1.2547001883        0.4541049921
 C          2.3311199634       -0.4387805888       -0.9003094816
 H         -3.0278459577       -1.2239361979       -0.4476501103
 H         -3.2019910245        0.2083682724       -1.4654914830
 H         -1.7343947032       -0.7688792963       -1.5577386679
 H         -2.6214185995        0.8279428895        0.8969830563
 H         -1.3712207146        1.3417280887       -0.2402515793
 H         -0.4299807058        0.3060761302        1.8183024818
 H         -1.2462290475       -1.2341615839        1.4002935130
 H          1.9724185246       -1.3447631598       -1.3776670715
 H          3.1970518853       -0.6714038351       -0.2838559711
 H          2.6332091431        0.2941579496       -1.6434152485
  17
        -23.95194620
 C         -2.1241989291        0.4631349741       -0.9076616217
 C         -2.0712591293       -0.5683176254        0.2127166451
 C         -0.8056212289       -0.4332136138        1.0562615706
 O          0.3518979644       -0.7672671354        0.2901338802
 C          1.1963249149        0.2140743896       -0.0413884750
 O          1.0654207776        1.3641582527        0.2838418996
 C          2.3432664199       -0.3252513575       -0.8574005737
 H         -1.2889425386        0.3278426005       -1.5912369326
 H         -3.0479807686        0.3624310001       -1.4719633255
 H         -2.0717445102        1.4704109098       -0.5009655497
 H         -2.1069017988       -1.5748243509       -0.2085271702
 H         -2.9298131777       -0.4435953695        0.8746667982
 H         -0.6972111272        0.5911174433        1.4275462394
 H         -0.8288676174       -1.1312708471        1.8979674107
 H          2.1177528993       -1.3262138791       -1.2105271765
 H          3.2328439310       -0.3527931614       -0.2313933457
 H          2.5386961558        0.3427200014       -1.6918735641
  17
        -23.95186492
 C         -2.1197307153        0.4795282076       -0.9006013903
 C         -2.0657577527       -0.5719882281        0.2008951187
 C         -0.8051192639       -0.4465194470        1.0535345390
 O          0.3583174298       -0.7726551812        0.2932355495
 C          1.1960325649        0.2158423628       -0.0366015075
 O          1.0575555642        1.3640726404        0.2906047891
 C          2.3385200380       -0.3175637514       -0.8627273582
 H         -1.2800631940        0.3634784861       -1.5822839183
 H         -3.0398353126        0.3829495690       -1.4716739014
 H         -2.0764674708        1.4794451393       -0.4751551667
 H         -2.0941970034       -1.5709396077       -0.2385307402
 H         -2.9281314317       -0.4637200682        0.8608044999
 H         -0.6997123553        0.5733297143        1.4376797398
 H         -0.8341132196       -1.1544502186        1.8867570476
 H          3.0241822742        0.4894287192       -1.1007639410
 H          1.9493293984       -0.7571538933       -1.7777559038
 H          2.8550473810       -1.0953855140       -0.3063040551
  17
        -23.95149013
 C         -3.3286721032        0.0282903547        0.0443128846
 C         -1.9887775454       -0.5833209233        0.4312107596
 C         -0.8406581596        0.1151998106       -0.2835669232
 O          0.3872408165       -0.5078569023        0.0961240421
 C          1.5090558313        0.1964928201       -0.0806506885
 O          1.5363798431        1.3119819920       -0.5289612898
 C          2.7165140861       -0.5974730113        0.3454492248
 H         -4.1379951814       -0.4788486914        0.5627414885
 H         -3.3574050519        1.0829717889        0.3077665444
 H         -3.4955352083       -0.0615973207       -1.0265711047
 H         -1.9709723859       -1.6430741340        0.1719242130
 H         -1.8366956043       -0.4998925779        1.5086169395
 H         -0.9520424885        0.0359057759       -1.3712694332
 H         -0.7952750742        1.1782547969       -0.0220551531
 H          2.4206067567       -1.4103877845        1.0004238549
 H          3.4269354094        0.0592122216        0.8394389444
 H          3.1926106225       -1.0073983751       -0.5432468068
  17
        -23.95138247
 C         -2.5581260638       -0.0356322247        1.0286336572
 C         -2.1665970707       -0.5427355039       -0.3538540150
 C         -0.8464872521        0.0532127890       -0.8225162832
 O          0.2042498504       -0.4414876188        0.0093795332
 C          1.3706376765        0.2065880842       -0.0395048960
 O          1.5732268410        1.1694026355       -0.7309635951
 C          2.3836191703       -0.4386592147        0.8705856817
 H         -2.6883797144        1.0443166615        1.0163824275
 H         -3.4905194791       -0.4926698496        1.3503698907
 H         -1.7839704469       -0.2827268408        1.7505631693
 H         -2.9360239374       -0.2796022413       -1.0812215763
 H         -2.0701041074       -1.6292699895       -0.3335240498
 H         -0.6331561589       -0.2304846325       -1.8596147130
 H         -0.8589679852        1.1471873692       -0.7630822198
 H          3.1280943350        0.2945108930        1.1655418415
 H          2.8786557605       -1.2401055750        0.3254025178
 H          1.8910900509       -0.8623207787        1.7402904786
  17
        -23.95136886
 C         -2.5523574212       -0.0320888380        1.0304918261
 C         -2.1667709505       -0.5427272733       -0.3523525575
 C         -0.8465812627        0.0490380974       -0.8258972003
 O          0.2049802476       -0.4446336763        0.0058023556
 C          1.3696752115        0.2067467684       -0.0403298762
 O          1.5712670767        1.1707584052       -0.7302368338
 C          2.3809714433       -0.4362679649        0.8733690603
 H         -3.4855803745       -0.4849880305        1.3557321626
 H         -1.7770395858       -0.2810631401        1.7505758599
 H         -2.6784168675        1.0483853235        1.0169402699
 H         -2.9378033576       -0.2788588370       -1.0778092466
 H         -2.0730835664       -1.6294803453       -0.3303941346
 H         -0.6356694834       -0.2388328654       -1.8623152793
 H         -0.8570009654        1.1432348603       -0.7702529350
 H          1.9033913191       -0.7498417579        1.7968257744
 H          3.1871764028        0.2623322571        1.0743901957
 H          2.7877302258       -1.3165955433        0.3795783609
  17
        -23.95133711
 C         -2.6648392638       -0.3442772187        0.9796938787
 C         -2.1584007705       -0.4347876141       -0.4546331810
 C         -0.8637508489        0.3416468504       -0.6471627710
 O          0.1694082936       -0.2913396124        0.1104793288
 C          1.4068854012        0.1817767569       -0.0523975869
 O          1.6823708051        1.0880143131       -0.7937419229
 C          2.3906964856       -0.5610862100        0.8143000298
 H         -3.5721481344       -0.9309269727        1.0995358770
 H         -1.9120663322       -0.7238518906        1.6653412704
 H         -2.8834634944        0.6882984830        1.2424701317
 H         -2.9034036274       -0.0307461649       -1.1417861061
 H         -1.9808897716       -1.4789632098       -0.7166803677
 H         -0.5635127152        0.3628053804       -1.7008123022
 H         -0.9691286198        1.3768741010       -0.3032230624
 H          1.9327499700       -1.4564848904        1.2216331460
 H          2.7021357069        0.0919207158        1.6271006652
 H          3.2704105620       -0.8125121954        0.2281186447
  17
        -23.95131486
 C         -2.6852859365       -1.0882492764        0.0866244498
 C         -2.1578381941        0.2951889097        0.4467010446
 C         -0.8820264547        0.6293465825       -0.3140380702
 O          0.1597834380       -0.2481617082        0.1175769806
 C          1.4172434644        0.1469612256       -0.0941577245
 O          1.7146160114        1.1889044418       -0.6159884814
 C          2.3965201273       -0.8878388755        0.3969886698
 H         -3.5766212276       -1.3172283910        0.6651968914
 H         -2.9374185504       -1.1366633973       -0.9703153921
 H         -1.9303731309       -1.8410286503        0.2968654570
 H         -1.9494074782        0.3422261321        1.5167956791
 H         -2.9044783054        1.0548214890        0.2097634708
 H         -1.0246725309        0.4967150984       -1.3926370377
 H         -0.5669249801        1.6629182340       -0.1332495279
 H          1.9266553646       -1.5318327299        1.1333160865
 H          3.2686801422       -0.3935294846        0.8148794924
 H          2.7180775428       -1.4898575495       -0.4508430883
