  18
        -47.57761199
 C          0.0013530428       -2.4325528023       -0.0000016953
 C          1.2005068155       -1.7416636526       -0.0161788783
 C          1.1924435663       -0.3525786077       -0.0192195697
 C         -0.0014150882        0.3530536236        0.0007533484
 C         -1.1940277778       -0.3551917596        0.0203357545
 C         -1.1993619355       -1.7440937089        0.0164287081
 C         -2.5027392261        0.3900261141        0.0060530513
 F         -2.9690105751        0.5488103512       -1.2467258207
 F         -3.4641116077       -0.2520294152        0.6851533677
 F         -2.4090490486        1.6159491775        0.5340433184
 C          2.5018935685        0.3913140062       -0.0058329870
 F          3.4469019295       -0.2274642926       -0.7288858745
 F          2.4000642761        1.6355708901       -0.4864494404
 F          2.9959445314        0.5026591555        1.2413360436
 H          0.0024410691       -3.5108281320       -0.0002560417
 H          2.1402229715       -2.2721843807       -0.0319038030
 H         -0.0027655911        1.4324706722        0.0011912256
 H         -2.1377853371       -2.2767563714        0.0319198722
