! r2scan-3c def2/J RI DEFGRID2 scfconv6 printgap
%output
    printlevel normal
end
* xyz 0 1
C -2.6883691759 -1.1812933351 -0.4166496004
C -2.447135912 0.1109043305 0.3556080375
C -1.177469636 0.8679755927 -0.0470128501
C 0.1272467268 0.3162014938 0.5354140781
C 0.6058995192 -0.9974128787 -0.1065793911
C 2.128960025 -0.8973317869 -0.1190172611
C 2.3619094952 0.5652574204 -0.4785558464
C 1.3014937602 1.3075072265 0.3390993938
H -3.6597622332 -1.5949118482 -0.1540415583
H -2.6777399141 -0.9910728884 -1.4875685988
H -1.931745912 -1.9254799667 -0.1906572834
H -3.30096737 0.7717463981 0.1853839934
H -2.4113845394 -0.1059159815 1.4255817082
H -1.103771425 0.9010044095 -1.1364951975
H -1.2839692873 1.8969971098 0.3068101229
H -0.0258421598 0.1551611556 1.6070692776
H 0.2607123617 -1.8738792945 0.4396963988
H 0.2411131461 -1.0618850916 -1.1325891731
H 2.5276123535 -1.1047948827 0.8756321655
H 2.5874892307 -1.5865675167 -0.826840828
H 3.3721019598 0.9019978001 -0.2500224741
H 2.1847341204 0.7114711125 -1.5452646072
H 1.71222513 1.5959957582 1.3070993457
H 0.9764477252 2.2160701823 -0.1662916493
*
