! pbe def2-sv(p) def2/J RI DEFGRID1 loosescf d4 GCP(DFT/SV(P)) printgap
%output
    printlevel normal
end
* xyz 0 1
C -2.1061004056 -1.0793645331 -0.488093834
C -1.4651891595 0.0108604972 0.3639302899
C -0.0650958413 0.4232281481 -0.113159507
C 0.3160751148 1.7635682937 0.5148047142
C 0.971688552 -0.6556170834 0.2222829838
C 2.3113501306 -0.4494387846 -0.4766630335
H -3.1109208192 -1.2918198445 -0.1307262185
H -2.1716069417 -0.759837978 -1.5258879738
H -1.5329402227 -2.0020664227 -0.4496542393
H -1.4040585812 -0.3246013981 1.4018055131
H -2.1133917252 0.8899424649 0.3405320593
H -0.09672943 0.5470932248 -1.2019068487
H -0.414972379 2.5262269996 0.2557297114
H 1.2886881199 2.097016983 0.164324606
H 0.3502939508 1.6755883596 1.5988560789
H 1.125135227 -0.6767223339 1.3038852178
H 0.5793172899 -1.6298000647 -0.0739336233
H 2.7944969031 0.4652246098 -0.1438082754
H 2.1724954286 -0.3931890865 -1.5542177623
H 2.9783536084 -1.2807934394 -0.2602968654
*
