  30
        -44.16227017
 C          2.9257751726       -2.5070413428       -0.2827666576
 C          3.2662946765       -1.0366031352       -0.4375162005
 O          2.1724530156       -0.2825731480       -0.9496018309
 P          0.8914593790        0.0348086675       -0.0437086338
 S          1.2804970176        0.3568461599        1.8443072172
 O          0.2362048019        1.2261995285       -0.8685549154
 C          0.3933085712        2.5834780580       -0.4527527684
 C          1.8013369697        3.0858199710       -0.7041431708
 S         -0.4562769996       -1.5154025346       -0.5298716129
 C         -1.6063779365       -1.1842156126        0.8513628107
 S         -2.4213041615        0.4256862391        0.7696252151
 C         -3.3323438613        0.2571373155       -0.8024650717
 C         -4.5436033881       -0.6471153624       -0.6916699382
 H          2.5332407333       -2.9041621133       -1.2159731523
 H          3.8172069780       -3.0613903966       -0.0028436753
 H          2.1742872743       -2.6337878613        0.4947974450
 H          4.0696714883       -0.8893528020       -1.1634847399
 H          3.5654317948       -0.6161259743        0.5299491076
 H         -0.3428506046        3.1391712282       -1.0382068673
 H          0.1433627706        2.6598977029        0.6114296042
 H          2.0705521907        2.9456176181       -1.7482867539
 H          1.8652197737        4.1411701504       -0.4535593407
 H          2.5042385088        2.5324263644       -0.0833434350
 H         -1.0444496334       -1.1922144264        1.7848936342
 H         -2.3406716963       -1.9850318951        0.8365363535
 H         -3.6256404182        1.2749493427       -1.0562977910
 H         -2.6190334975       -0.1065900564       -1.5433297710
 H         -5.0855917505       -0.6486072577       -1.6350868986
 H         -4.2495251386       -1.6699272913       -0.4674177183
 H         -5.2084836349       -0.2948819346        0.0934518264
