! pbe def2-sv(p) def2/J RI DEFGRID1 loosescf d4 GCP(DFT/SV(P)) printgap
%output
    printlevel normal
end
* xyz 0 1
C 1.8846995022 -0.1775723573 -1.2471033761
C 1.0306467489 -0.208255822 0.0212320645
C 1.8805893961 0.0841111216 1.2586742891
O 0.0056744022 0.7842042442 -0.0846315644
C -1.3515676218 0.3619314694 -0.0387271705
C -1.7358422037 -0.54162557 -1.2133910088
C -1.7345631545 -0.2729616186 1.3006752496
H 1.2761086853 -0.4062809897 -2.1180029222
H 2.3094385355 0.8145828513 -1.3738571727
H 2.6876720697 -0.9050329654 -1.17397346
H 0.5803106208 -1.2021457927 0.1242155164
H 2.3039989522 1.081791185 1.1797718454
H 2.68448248 -0.6415893244 1.3390236985
H 1.2695757488 0.0385034303 2.1563001676
H -1.8870630412 1.3142540418 -0.1402787878
H -2.8116251346 -0.6884990894 -1.2187457279
H -1.4390808959 -0.0762497631 -2.1500739908
H -1.2538556753 -1.5133819771 -1.1363396953
H -1.2518719998 -1.2387126653 1.4304911719
H -2.8102153247 -0.4160594895 1.3377849421
H -1.4376672883 0.3801183355 2.1175694411
*
