! r2scan-3c def2/J RI DEFGRID2 scfconv6 printgap
%output
    printlevel normal
end
* xyz 0 1
C 4.1510015074 0.0671906002 -0.4617405163
N 2.7260077502 -0.18312151 -0.4874758733
C 2.2903249903 -1.0961733294 -1.5188858142
C 1.9290971091 0.3692036773 0.4384268631
O 2.3743166193 1.0561891987 1.3659261049
C 0.4581832794 0.1454963535 0.315719228
C -0.2510865133 0.5671772229 -0.8017442377
C -1.6271597453 0.4332970993 -0.8630244483
C -2.3174133585 -0.1344810046 0.2036047872
C -1.6076127938 -0.5476190207 1.3338013319
C -0.2400414882 -0.3960211933 1.3921782991
O -3.6632218018 -0.3243624646 0.2480810945
C -4.4461444458 0.0791871734 -0.8613496566
H 4.3589276201 0.7890277097 0.325402916
H 4.4710521514 0.4686460858 -1.4234262126
H 4.6942285763 -0.856494728 -0.2572797908
H 1.2700957473 -1.4197659177 -1.3359500087
H 2.9462933232 -1.9675553959 -1.5175398493
H 2.3494434523 -0.6178390298 -2.498539283
H 0.2714655395 1.0208831905 -1.629886476
H -2.1474144436 0.7770468699 -1.7417895155
H -2.1573906975 -0.9765744444 2.1560559693
H 0.3045654059 -0.6991959917 2.2735775211
H -4.3635038325 1.1554763978 -1.0313312759
H -5.4699045824 -0.1711526058 -0.5932836068
H -4.1587505191 -0.4644144052 -1.7646008729
*
