! pbe def2-sv(p) def2/J RI DEFGRID1 loosescf d4 GCP(DFT/SV(P)) printgap
%output
    printlevel normal
end
* xyz 0 1
C -2.1294898155 0.042329351 0.754960752
C -1.5403400632 0.1458882689 -0.6471583105
C -0.22168167 -0.6182345594 -0.7592480562
C 0.9170596023 0.0464924388 -0.0235897111
O 0.9192923059 1.2274897906 0.2631242171
C 2.0605428049 -0.865497524 0.3171142027
H -3.0687796442 0.5860321602 0.8137152709
H -1.4427937529 0.4686849968 1.4834238877
H -2.3150700485 -0.9968487159 1.0178430133
H -1.3598227156 1.1958344697 -0.8862222597
H -2.2512678037 -0.2530303658 -1.3721592976
H -0.337084986 -1.6410934323 -0.3999788591
H 0.0845878617 -0.6684178524 -1.807807922
H 2.9328932955 -0.2869239534 0.6082247174
H 2.2953300805 -1.5122648972 -0.5228305734
H 1.7599959557 -1.4928703509 1.1541555386
*
