! r2scan-3c def2/J RI DEFGRID2 scfconv6 printgap
%output
    printlevel normal
end
* xyz 0 1
C 1.8061137704 0.5504192437 -1.116302094
C 1.0686327438 -0.1828165108 0.0037015961
H 0.6676237217 -1.1289257841 -0.3897396224
C -0.0725813339 0.6583399578 0.5976944851
C -1.4933792928 0.2889585957 0.1487962911
C -1.6742260079 0.4026367806 -1.3634357932
C -1.9066467918 -1.0985500878 0.6373041606
O 1.9532508644 -0.4853476663 1.0774039884
H 2.2791403984 1.4450362255 -0.7168022332
H 2.5741083895 -0.0858642133 -1.5521364993
H 1.110488492 0.8379753273 -1.8977189546
H -0.0114371044 0.5434439219 1.6823663402
H 0.109887977 1.7103356177 0.3711699641
H -2.1613724788 1.0184821488 0.6221603399
H -1.0676275935 -0.3346558437 -1.8830355643
H -1.3927162101 1.3945379142 -1.7086262937
H -2.7151952091 0.231653435 -1.6279711764
H -2.9535452269 -1.2806537045 0.4062561305
H -1.3154575492 -1.8758560745 0.1598627232
H -1.7709615822 -1.179355395 1.7130725418
H 2.7173031087 -0.968138064 0.7345201533
*
