! pbe def2-sv(p) def2/J RI DEFGRID1 loosescf d4 GCP(DFT/SV(P)) printgap
%output
    printlevel normal
end
* xyz 0 1
C -2.6562343327 -1.2163563113 -0.279307093
C -2.4615668084 0.2081740412 0.2263513968
C -1.1347413564 0.8570029929 -0.1771886114
C 0.1035974912 0.3062010149 0.5402401408
C 0.6135069934 -1.0304697539 -0.0381004708
C 2.131406711 -0.886493481 -0.1484543807
C 2.3080864104 0.5856311664 -0.497572882
C 1.3057431589 1.2733485719 0.4271174611
H -2.5244615672 -1.2598706814 -1.358113787
H -1.9496740701 -1.8976498636 0.1839579253
H -3.6618063481 -1.5590779935 -0.0448895757
H -3.2707948024 0.8271441848 -0.169800281
H -2.5460052312 0.2191184008 1.3155966759
H -1.0000303351 0.7709768761 -1.2577356898
H -1.2141899434 1.9213940383 0.0593354882
H -0.1539700853 0.1777865729 1.5956444335
H 0.3365197702 -1.8805613023 0.5837024299
H 0.1946729649 -1.1856474633 -1.0326273789
H 2.6021140891 -1.0963955102 0.8135398731
H 2.5580837719 -1.5557055896 -0.8943970544
H 3.3265286664 0.9398148709 -0.345009652
H 2.0354525183 0.7538147402 -1.5404541527
H 1.7585515441 1.4177653407 1.409029554
H 1.0088731403 2.2507025531 0.0496081625
*
