! pbe def2-sv(p) def2/J RI DEFGRID1 loosescf d4 GCP(DFT/SV(P)) printgap
%output
    printlevel normal
end
* xyz 0 1
C -1.8504630373 -0.759581111 -0.1228000616
C -1.3271835759 0.6047318045 0.3116322836
C 0.0733858238 0.8667373948 -0.245954671
C 1.0909238035 -0.0510294922 0.339139902
O 2.002425549 -0.5697091683 -0.2604981766
H -1.1881887946 -1.5512122756 0.2227234712
H -2.8421062164 -0.9354848688 0.2856208771
H -1.9099636237 -0.8176970311 -1.2070951775
H -1.2979130052 0.6561971734 1.4014075893
H -2.002241326 1.3830049247 -0.0451504739
H 0.0900651192 0.7872109274 -1.3338976256
H 0.3867433646 1.8786869889 0.0272155729
H 0.9695368581 -0.2323736672 1.4236048789
*
