  25
        -40.34465903
 C         -2.5888327468       -3.1284252513        0.8575939523
 C         -2.1870076340       -2.4340233192       -0.4412470788
 N         -0.7611837225       -2.2452144957       -0.5317959957
 C         -0.1363610196       -1.0996729393       -0.2416232911
 N         -0.8528023908       -0.0041150551       -0.0013514812
 C         -0.1439207687        1.0961771957        0.2395575456
 N          1.2024774622        1.1521448761        0.2467726438
 C          1.7851919112        0.0046537089       -0.0001369629
 N          1.2103235838       -1.1467265525       -0.2475352934
 Cl         3.4935014827        0.0101677966        0.0011818312
 N         -0.7763545017        2.2376890010        0.5288576792
 C         -2.2033047089        2.4177584598        0.4390002096
 C         -2.6082230731        3.1251900686       -0.8517698827
 H         -2.1244663784       -4.1097272462        0.9265387664
 H         -2.2733365447       -2.5336581614        1.7109145661
 H         -3.6676375663       -3.2511085364        0.8961871565
 H         -2.6395652612       -1.4431354767       -0.4948358940
 H         -2.5143699457       -3.0272044700       -1.3005329620
 H         -0.1641490484       -3.0527771435       -0.6227106464
 H         -0.1844845856        3.0488268373        0.6218043518
 H         -2.6488942782        1.4231358030        0.4802506045
 H         -2.5360880512        2.9983090444        1.3049111979
 H         -3.6877443852        3.2415102410       -0.8899860802
 H         -2.1500964310        4.1102251638       -0.9082480817
 H         -2.2881248314        2.5430001606       -1.7120302267
  25
        -40.34462771
 C         -1.0097998417       -4.3523740576        0.8502561195
 C         -0.7857802447       -3.5573279739       -0.4329372193
 N         -1.4002843503       -2.2542429757       -0.3689893940
 C         -0.7278524752       -1.1171582095       -0.1663402537
 N         -1.4434860689       -0.0047495376       -0.0018144629
 C         -0.7351071070        1.1121164736        0.1640256328
 N          0.6100966368        1.1658208663        0.1705958426
 C          1.1893888358        0.0034768416        0.0005440107
 N          0.6176676000       -1.1624621537       -0.1704749257
 Cl         2.8987713728        0.0088368244        0.0019841710
 N         -1.4150048053        2.2449635708        0.3652367119
 C         -0.8087654306        3.5517178419        0.4328132202
 C         -1.0378120452        4.3488068799       -0.8482065278
 H         -0.5821241362       -3.8223101314        1.6973024918
 H         -2.0727491138       -4.4994756858        1.0311241321
 H         -0.5331303691       -5.3253083350        0.7715065822
 H         -1.2033877085       -4.0991581856       -1.2876096920
 H          0.2799452533       -3.3934492663       -0.5955643657
 H         -2.4032393148       -2.1919221984       -0.2862745948
 H         -2.4174636777        2.1763057890        0.2816992117
 H         -1.2297269596        4.0886524843        1.2889597866
 H          0.2579570718        3.3940654294        0.5950417117
 H         -2.1016778965        4.4894576847       -1.0287685080
 H         -0.5675493421        5.3246278280       -0.7666547692
 H         -0.6066009705        3.8239748385       -1.6967165700
  25
        -40.34461971
 C         -1.4283241424       -4.0240502188       -0.7814737314
 C         -1.1276582104       -3.2277939338        0.4851352495
 N         -1.4875524692       -1.8386218336        0.3417814552
 C         -0.6070201226       -0.8527967794        0.1446304482
 N         -1.0995284914        0.3636591712       -0.0950942666
 C         -0.1927118393        1.3234864047       -0.2535228061
 N          1.1412126343        1.1325938696       -0.1841152042
 C          1.4895887759       -0.1064370759        0.0542980480
 N          0.7036458565       -1.1415395327        0.2277572922
 Cl         3.1675302283       -0.4148176426        0.1525075218
 N         -0.5865658248        2.5701093403       -0.5303537695
 C         -1.9579157835        3.0121351384       -0.5130126203
 C         -2.2709503801        3.8383274926        0.7315911671
 H         -0.8665001475       -3.6192004909       -1.6192016267
 H         -1.1447763995       -5.0633232245       -0.6418210293
 H         -2.4893245781       -3.9820867628       -1.0197439381
 H         -0.0596923104       -3.2534982947        0.7038514470
 H         -1.6809499170       -3.6467497502        1.3317671973
 H         -2.4565270796       -1.5986706265        0.1997716212
 H          0.1493385536        3.2585155702       -0.5704313123
 H         -2.1469064745        3.6060576229       -1.4131393509
 H         -2.5760761797        2.1140459610       -0.5384202790
 H         -3.3110292550        4.1519543866        0.7182844335
 H         -2.0952366233        3.2471707008        1.6266352934
 H         -1.6413639777        4.7246619924        0.7708241018
  25
        -40.34461119
 C         -0.9432606309       -4.3232552273        0.8636927327
 C         -0.7929430836       -3.5534791490       -0.4456255275
 N         -1.4127720639       -2.2528456126       -0.3787953325
 C         -0.7409370372       -1.1160547616       -0.1706395658
 N         -1.4565206968       -0.0046065093        0.0002924529
 C         -0.7479354745        1.1114038608        0.1707412608
 N          0.5972032366        1.1648491312        0.1780871474
 C          1.1764685035        0.0036905703        0.0002416671
 N          0.6045078580       -1.1610382090       -0.1779116271
 Cl         2.8858682960        0.0089858074        0.0006724070
 N         -1.4269099371        2.2440658084        0.3779860277
 C         -0.8154109105        3.5486138698        0.4449497720
 C         -0.9700987626        4.3171042188       -0.8646206864
 H         -0.4760398504       -3.7715272657        1.6752401058
 H         -1.9938695275       -4.4744738413        1.1033793366
 H         -0.4624795004       -5.2937941487        0.7803515389
 H         -1.2504134055       -4.1143857413       -1.2664565933
 H          0.2622462623       -3.3873495087       -0.6650271614
 H         -2.4147313321       -2.1940736498       -0.2829270544
 H         -2.4285504960        2.1787900997        0.2831647056
 H         -1.2768080162        4.1067518668        1.2654741041
 H          0.2407343025        3.3892963784        0.6648023323
 H         -0.4965989748        3.7696178014       -1.6754112670
 H         -2.0215999376        4.4589877284       -1.1061466064
 H         -0.4981303423        5.2918754971       -0.7803326000
  25
        -40.34460814
 C         -2.2303233866       -3.7538241366        0.9468733180
 C         -1.9515405370       -3.0360005811       -0.3712558469
 N         -0.5838545415       -2.5914302092       -0.4630927660
 C         -0.1853609475       -1.3378747453       -0.2256777588
 N         -1.0906119455       -0.3820926097       -0.0380419159
 C         -0.5965780470        0.8420937883        0.1550108749
 N          0.7141646732        1.1421637623        0.1639093169
 C          1.4986500484        0.1095085846       -0.0299956770
 N          1.1488012062       -1.1365345726       -0.2260237804
 Cl         3.1768214568        0.4319497128       -0.0241280407
 N         -1.4745012970        1.8236151198        0.3812157817
 C         -1.1236293045        3.2182712656        0.4875748865
 C         -1.5623369656        4.0048129918       -0.7440626406
 H         -2.0388484790       -3.0855892685        1.7824268678
 H         -3.2681992780       -4.0727472752        0.9846820227
 H         -1.5933055299       -4.6297805524        1.0483016471
 H         -2.5765754477       -2.1461999119       -0.4555848462
 H         -2.1578083305       -3.7042524035       -1.2130201643
 H          0.1530521301       -3.2776641267       -0.5171184732
 H         -2.4476493786        1.5710908490        0.3042569793
 H         -1.5963276735        3.6325475887        1.3842854108
 H         -0.0398403381        3.2602833639        0.6001719435
 H         -1.0828520285        3.6051863068       -1.6338870737
 H         -2.6413437583        3.9465259363       -0.8731552696
 H         -1.2819024848        5.0487191136       -0.6363921530
  25
        -40.34459788
 C         -2.7579312307       -2.8843984755       -0.8733681620
 C         -2.1345495067       -2.4804479704        0.4603652487
 N         -0.7071320935       -2.3121482564        0.3573095139
 C         -0.0964572203       -1.1290054547        0.2397703226
 N         -0.8032216733       -0.0091684816        0.3728307086
 C         -0.1029382415        1.1186619010        0.2780073588
 N          1.2242476009        1.1780555073        0.0522035071
 C          1.7981585694        0.0058104231       -0.0651221207
 N          1.2310753687       -1.1730205602        0.0123840598
 Cl         3.4807307633        0.0157490134       -0.3606190816
 N         -0.7205522983        2.2934925475        0.4351674323
 C         -2.1485814044        2.4499672521        0.5476556609
 C         -2.7771225422        2.9018212228       -0.7681252545
 H         -2.5619447427       -2.1217401150       -1.6226166928
 H         -2.3419940549       -3.8278242651       -1.2202179839
 H         -3.8327151694       -2.9982892071       -0.7629440392
 H         -2.3420375752       -3.2431065483        1.2172684285
 H         -2.5407058345       -1.5243315738        0.7924627504
 H         -0.1305633347       -3.1176124627        0.1683762874
 H         -0.1486837455        3.1084775272        0.2750889284
 H         -2.5487656142        1.4795256112        0.8434400364
 H         -2.3585577743        3.1816728463        1.3338989578
 H         -3.8522855916        3.0051280973       -0.6511784603
 H         -2.3673743563        3.8604132260       -1.0788536043
 H         -2.5785149328        2.1700442838       -1.5468852993
  25
        -40.34459514
 C         -1.3148852004       -4.2113769171       -0.8772324946
 C         -0.7179147867       -3.5797296390        0.3771118608
 N         -1.2797589401       -2.2776800315        0.6386773461
 C         -0.6395408501       -1.1250917728        0.4214895206
 N         -1.3313361585        0.0007918852        0.5964705427
 C         -0.6467610184        1.1284889593        0.4057609561
 N          0.6502275780        1.1799332690        0.0483086963
 C          1.2085613597        0.0040837226       -0.0971169204
 N          0.6577146739       -1.1731938199        0.0645175471
 Cl         2.8546489491        0.0061384084       -0.5580876663
 N         -1.2941432091        2.2800033773        0.6074037388
 C         -0.7410425381        3.5812267832        0.3238275501
 C         -1.3294983491        4.1804726928       -0.9503455213
 H         -2.3912325820       -4.3322459177       -0.7719755547
 H         -1.1175783403       -3.5834257942       -1.7421629217
 H         -0.8710228484       -5.1881159379       -1.0475045815
 H          0.3565456465       -3.4384652998        0.2560954651
 H         -0.9028648527       -4.2220358879        1.2442646422
 H         -2.2649005691       -2.2026494708        0.8396812833
 H         -2.2792664200        2.2014267628        0.8071455979
 H         -0.9413390786        4.2398485716        1.1750854290
 H          0.3358974362        3.4473504458        0.2171785235
 H         -1.1168357480        3.5356954852       -1.7991182757
 H         -2.4080000660        4.2938075315       -0.8596693045
 H         -0.8922630164        5.1572316766       -1.1368465279
  25
        -40.34458092
 C         -2.4242675052       -3.6203767111        0.8598322787
 C         -1.8943094380       -3.0629161229       -0.4586618040
 N         -0.5248870040       -2.6295196206       -0.3449281434
 C         -0.1441243268       -1.3520210618       -0.2519371717
 N         -1.0407074774       -0.3822615575       -0.4076458407
 C         -0.5572099602        0.8590799003       -0.3347651408
 N          0.7334864315        1.1622476892       -0.1104789061
 C          1.5099797527        0.1152654306        0.0316164926
 N          1.1696594666       -1.1475276832       -0.0218814273
 Cl         3.1612494440        0.4416585356        0.3269666853
 N         -1.4214598831        1.8610102851       -0.5209428265
 C         -1.0937995960        3.2555823295       -0.3554244867
 C         -1.6803913550        3.8244153223        0.9333822189
 H         -1.8360393001       -4.4790081009        1.1763771753
 H         -2.3734163413       -2.8596184453        1.6344739796
 H         -3.4584264514       -3.9322019262        0.7432496035
 H         -2.4740149140       -2.1905175928       -0.7624180006
 H         -1.9565882460       -3.8274903085       -1.2396233901
 H          0.1911043261       -3.3115574240       -0.1472030005
 H         -2.3892133909        1.5960733491       -0.6202082285
 H         -0.0054884686        3.3213883730       -0.3383682763
 H         -1.4763628588        3.8105168105       -1.2181929444
 H         -2.7652792369        3.7389707983        0.9328232459
 H         -1.2885877333        3.2855518218        1.7921644379
 H         -1.4150346751        4.8733371679        1.0299360058
  25
        -40.34458092
 C         -2.4703239744       -3.6212665960       -0.7131409730
 C         -1.8638430021       -3.0635222004        0.5718297394
 N         -0.5037593256       -2.6293101093        0.3776735316
 C         -0.1296932756       -1.3517726990        0.2612681470
 N         -1.0166894187       -0.3822092630        0.4656937072
 C         -0.5386629205        0.8592183928        0.3640709767
 N          0.7373404894        1.1626258568        0.0676240175
 C          1.5051176460        0.1158309489       -0.1168462779
 N          1.1688733037       -1.1470362201       -0.0428980786
 Cl         3.1368977768        0.4426090333       -0.5051142294
 N         -1.3915694971        1.8611960412        0.5967194845
 C         -1.0732893459        3.2555526001        0.4120656129
 C         -1.7229626504        3.8216954750       -0.8473406449
 H         -3.4948658372       -3.9358522553       -0.5351808013
 H         -2.4678079398       -2.8597617354       -1.4887152097
 H         -1.8998906494       -4.4781177225       -1.0650993304
 H         -1.8794176904       -3.8281903414        1.3550589967
 H         -2.4252934962       -2.1915402012        0.9093006845
 H          0.2003175469       -3.3113565686        0.1410785487
 H         -2.3523974395        1.5962895137        0.7490399416
 H         -1.4129541203        3.8120068122        1.2916044374
 H          0.0128046671        3.3217964848        0.3408689028
 H         -2.8065041987        3.7366738927       -0.7929539291
 H         -1.4623445313        4.8702787987       -0.9593023317
 H         -1.3741973667        3.2807232450       -1.7231646161
  25
        -40.34457425
 C         -1.3640990195       -4.2295961506        0.9202448713
 C         -0.7125435088       -3.5835527980       -0.2987199122
 N         -1.2781861687       -2.2871083231       -0.5786377545
 C         -0.6391372047       -1.1287365410       -0.3934748216
 N         -1.3340548666       -0.0087475368       -0.5930271197
 C         -0.6515268498        1.1245191517       -0.4311626094
 N          0.6468034181        1.1874166902       -0.0808547115
 C          1.2081889141        0.0166680070        0.0914899553
 N          0.6591957868       -1.1653693296       -0.0387783476
 Cl         2.8559362231        0.0335349253        0.5461590362
 N         -1.3017204233        2.2700986842       -0.6588964812
 C         -0.7506232050        3.5760939580       -0.3928735936
 C         -1.2652598526        4.1529608767        0.9232125128
 H         -2.4316711824       -4.3652931597        0.7584705659
 H         -0.9159038973       -5.2009880346        1.1087760210
 H         -1.2215689109       -3.6039046974        1.7975311786
 H         -0.8453256299       -4.2243307824       -1.1769830899
 H          0.3528335714       -3.4288498563       -0.1252038659
 H         -2.2613223800       -2.2193513455       -0.7916671420
 H         -2.2901242730        2.1848103985       -0.8386970873
 H          0.3327196679        3.4579735567       -0.3535612811
 H         -1.0135927646        4.2392701318       -1.2226605873
 H         -2.3491596126        4.2476644127        0.9044471309
 H         -0.9859232916        3.5033705275        1.7486291404
 H         -0.8333368251        5.1353542134        1.0916126218
  25
        -40.34326298
 C         -2.6092526625       -3.1964166270        0.8525162616
 C         -2.1151233697       -2.5535530562       -0.4407234550
 N         -0.6881281101       -2.3544031856       -0.4281072315
 C         -0.0956361087       -1.1723261808       -0.2345467162
 N         -0.8359050751       -0.0667264784       -0.1875654763
 C         -0.1520401286        1.0641280145       -0.0273913628
 N          1.1885703894        1.1427947696        0.0885155350
 C          1.7939574241       -0.0176944497        0.0301939883
 N          1.2473250498       -1.1987227971       -0.1251314975
 Cl         3.4961385892        0.0113660007        0.1761822065
 N         -0.8207363467        2.2166170426        0.0289322871
 C         -2.2577780079        2.3069060314       -0.0855743278
 C         -2.7050717584        3.7551456539        0.0130062452
 H         -3.6872534213       -3.3261507465        0.8153393496
 H         -2.1468919531       -4.1705045583        0.9968402197
 H         -2.3618343193       -2.5651149716        1.7020198963
 H         -2.5661684901       -1.5691553529       -0.5717940009
 H         -2.3738869897       -3.1867715474       -1.2955240470
 H         -0.0802305083       -3.1578544124       -0.3853507986
 H         -0.2731172616        3.0534295992        0.1459189954
 H         -2.5659059157        1.8723432249       -1.0432992562
 H         -2.7149489361        1.7068001452        0.7092084533
 H         -3.7862875152        3.8162584595       -0.0731364837
 H         -2.4107001400        4.1810862263        0.9694335253
 H         -2.2617545284        4.3463626756       -0.7849865435
  25
        -40.34313585
 C         -2.2174536574       -4.4091599384        0.1362411011
 C         -2.0562929400       -2.9032605835        0.0196720007
 N         -0.6609106012       -2.5400927268        0.1054281133
 C         -0.2218115241       -1.2849125466        0.0049528503
 N         -1.1026724059       -0.3051315753       -0.1781863786
 C         -0.5790834568        0.9189418555       -0.2687945647
 N          0.7341202743        1.1947768772       -0.1819369037
 C          1.4906141374        0.1390995066       -0.0001066288
 N          1.1128121132       -1.1096359371        0.1031105784
 Cl         3.1699682182        0.4335424660        0.1207128342
 N         -1.4264806747        1.9292348311       -0.4877528574
 C         -1.0460370937        3.3201832161       -0.4730135993
 C         -1.4527508983        4.0052962701        0.8287292591
 H         -1.6821341836       -4.9132456134       -0.6651119907
 H         -1.8320916357       -4.7611547575        1.0904738315
 H         -3.2683565339       -4.6763078140        0.0697467891
 H         -2.6064885951       -2.3934546522        0.8186588453
 H         -2.4568275007       -2.5436899334       -0.9345724205
 H          0.0350049352       -3.2541790051        0.2455829570
 H         -2.4060788999        1.6909469912       -0.4699099962
 H          0.0374237358        3.3500615767       -0.5928724810
 H         -1.5189702039        3.8201273290       -1.3241783825
 H         -2.5304901167        3.9533886193        0.9704130402
 H         -0.9664065377        3.5219970417        1.6720888282
 H         -1.1551648526        5.0498039438        0.8068386496
  25
        -40.34172507
 C         -2.6125240232       -3.8747694233        0.0459990712
 C         -2.2015782556       -2.4126089266        0.0656556986
 N         -0.7621194020       -2.2947211192        0.0480786213
 C         -0.1253584897       -1.1230823452        0.0245788114
 N         -0.8449448203       -0.0028561422        0.0019550183
 C         -0.1321818475        1.1217232021       -0.0215780148
 N          1.2145703727        1.1793305591       -0.0246855924
 C          1.7957422834        0.0050799781       -0.0018305986
 N          1.2217352901       -1.1726049697        0.0239922055
 Cl         3.5047753812        0.0103823542       -0.0029678566
 N         -0.7758696990        2.2895339776       -0.0441401929
 C         -2.2159540483        2.4004429840       -0.0355445215
 C         -2.6334635218        3.8603200384       -0.0758809078
 H         -2.2223047079       -4.3924354019        0.9193647126
 H         -3.6958502451       -3.9558158117        0.0534302621
 H         -2.2359170173       -4.3649311568       -0.8487859831
 H         -2.5903796206       -1.9148268953        0.9614460254
 H         -2.6075978510       -1.8841100126       -0.8036718390
 H         -0.1898908744       -3.1225959221        0.0791909556
 H         -0.2084121937        3.1212200112       -0.0536958870
 H         -2.6170878979        1.8592039557       -0.8995507968
 H         -2.6050398738        1.9121094830        0.8650612573
 H         -2.2471628082        4.3916550099        0.7909430400
 H         -2.2575408935        4.3399263047       -0.9766966823
 H         -3.7171510034        3.9365421911       -0.0715832512
