! r2scan-3c def2/J RI DEFGRID2 scfconv6 printgap
%output
    printlevel normal
end
%cpcm
    smd true
    smdsolvent "water"
end
* xyz 0 1
C 2.221695491 -1.1554081369 0.5210947942
C 1.5158749881 -0.2585811734 -0.4899925881
C 0.3019741693 0.491071735 0.0951555341
H 0.3819549416 0.5027682475 1.1940432469
C -1.0502903434 -0.1399337434 -0.2842803465
C -1.1484876805 -1.6041362081 0.1324424753
C -2.1902972922 0.6553330925 0.3525955685
O 0.264857111 1.8315377695 -0.3785171896
H 3.0733103643 -1.6433777991 0.0533826639
H 1.5525783871 -1.921847883 0.9003136083
H 2.5831084734 -0.5700903058 1.3636922517
H 2.2279914694 0.4857450502 -0.8546464423
H 1.2009003156 -0.8430860676 -1.3555641618
H -1.1421555234 -0.0632238849 -1.3732801659
H -0.4179735271 -2.2182403209 -0.3852979314
H -0.9953382642 -1.7016333167 1.2050227427
H -2.1390462412 -1.9830824298 -0.1068047124
H -2.1441885236 0.5767517684 1.4368900455
H -3.1504679523 0.2724096244 0.0167281597
H -2.1150326983 1.7033010241 0.0757580539
H 1.0453251302 2.3023819868 -0.0586533698
*
