  12
        -12.60605170
 C          1.7388132288       -0.3190102214        0.2191380723
 C          0.5666755349        0.5875932949       -0.1552364322
 C         -0.6785219627       -0.2076008533       -0.3869716285
 C         -1.8046677137       -0.0518304130        0.2822326016
 H          2.6409429933        0.2684978269        0.3735963707
 H          1.9293197541       -1.0425818867       -0.5706887371
 H          1.5180204111       -0.8618250417        1.1355780575
 H          0.8175649123        1.1314147192       -1.0710560606
 H          0.3970622044        1.3187423293        0.6374021326
 H         -0.6041890121       -0.9620517265       -1.1602654354
 H         -2.6769666468       -0.6514900799        0.0841277156
 H         -1.9041182810        0.6902330827        1.0579592493
  12
        -12.60495807
 C          1.4596695068       -0.3504519347        0.4918580067
 C          0.6770930059        0.4707307532       -0.5239595052
 C         -0.8123088225        0.3335254133       -0.4381697935
 C         -1.4893262428       -0.4131102750        0.4133916972
 H          1.1952753304       -0.0592582791        1.5056213939
 H          2.5271840316       -0.1904428418        0.3570681131
 H          1.2541902164       -1.4109944182        0.3675943847
 H          0.9859757798        0.1877114106       -1.5358281739
 H          0.9273808442        1.5302952342       -0.4053597606
 H         -1.3485879382        0.9264722615       -1.1700042129
 H         -2.5657325130       -0.4470467835        0.3978680443
 H         -1.0109231459       -1.0216806409        1.1608661999
