  12
        -12.60605170
 C          1.7388132288       -0.3190102214        0.2191380723
 C          0.5666755349        0.5875932949       -0.1552364322
 C         -0.6785219627       -0.2076008533       -0.3869716285
 C         -1.8046677137       -0.0518304130        0.2822326016
 H          2.6409429933        0.2684978269        0.3735963707
 H          1.9293197541       -1.0425818867       -0.5706887371
 H          1.5180204111       -0.8618250417        1.1355780575
 H          0.8175649123        1.1314147192       -1.0710560606
 H          0.3970622044        1.3187423293        0.6374021326
 H         -0.6041890121       -0.9620517265       -1.1602654354
 H         -2.6769666468       -0.6514900799        0.0841277156
 H         -1.9041182810        0.6902330827        1.0579592493
