  19
        -27.28362490
 C         -3.5221024563       -0.8419560824       -0.0711591190
 C         -2.5537072194        0.3155814713       -0.2788663988
 C         -1.1785048687        0.0123931661        0.3113269685
 C         -0.2078762118        1.1731639532        0.1024540375
 C          1.1651962104        0.8878703576        0.7081662924
 N          1.8323397442       -0.1903431110       -0.0473711013
 O          2.1617732176       -1.1768532114        0.5645486113
 O          2.0051428726       -0.0091989881       -1.2275780572
 H         -3.6525335296       -1.0458112684        0.9893702968
 H         -4.4941741327       -0.6076636495       -0.4977954199
 H         -3.1458516886       -1.7436343593       -0.5488241339
 H         -2.9571624518        1.2163432425        0.1894991652
 H         -2.4500205100        0.5150836953       -1.3474679300
 H         -0.7816700411       -0.8901519204       -0.1591358420
 H         -1.2816823936       -0.1890098009        1.3803030976
 H         -0.6108298129        2.0763672251        0.5636684399
 H         -0.0841222819        1.3646202471       -0.9656099570
 H          1.0901779075        0.5655799878        1.7480137141
 H          1.7987758714        1.7748382054        0.6323357625
