  23
        -30.27729176
 C         -3.7193573774        1.2824457217       -0.0357059434
 C         -2.9934319835       -0.0286738813        0.2393647150
 C         -1.5695353091       -0.0150377298       -0.3112323804
 C         -0.8390998018       -1.3272312145       -0.0366625006
 C          0.5815949347       -1.3149350209       -0.6027085232
 C          1.4583299636       -0.3400043896        0.1484074054
 O          1.5055936172       -0.2189132992        1.3433211811
 O          2.2072959640        0.3836027119       -0.6957263212
 C          3.0949639895        1.3213556919       -0.1025036846
 H         -3.1922750986        2.1136133175        0.4275590561
 H         -3.7786779024        1.4692388964       -1.1059475274
 H         -4.7303327812        1.2519730392        0.3637914317
 H         -3.5478978324       -0.8531861063       -0.2151461811
 H         -2.9595411955       -0.2059760057        1.3163216213
 H         -1.6008672588        0.1654314114       -1.3889000282
 H         -1.0148713025        0.8064609768        0.1477418516
 H         -0.7826113361       -1.4926262199        1.0406937145
 H         -1.3954563359       -2.1548924090       -0.4811758988
 H          1.0298046101       -2.3049604553       -0.4880625902
 H          0.5863803681       -1.0508360068       -1.6602842497
 H          2.5362846844        2.0504214440        0.4878264297
 H          3.6146614978        1.8104662712       -0.9220942733
 H          3.8039814221        0.8104695961        0.5519629720
