! r2scan-3c def2/J RI DEFGRID2 scfconv6 printgap
%output
    printlevel normal
end
* xyz 0 1
C -2.6450183483 0.668798502 0.0892245811
C -1.2759488727 0.1390891627 0.4987714381
C -0.5674342114 -0.5431148578 -0.6694363271
C 0.815662774 -1.0784562692 -0.2712513557
C 1.7188326796 -0.0134609938 0.0609309589
N 2.4425142076 0.8386853646 0.3130303545
H -3.2778512958 -0.1423920683 -0.2633846967
H -3.1358206414 1.1464510389 0.9330899224
H -2.547219279 1.4005586803 -0.7094010833
H -0.6588303357 0.9643375071 0.8631215952
H -1.3942302838 -0.5733412238 1.3186763641
H -0.4583391865 0.1663154296 -1.4925619109
H -1.1722285284 -1.379961018 -1.0224997486
H 0.7300141146 -1.737212758 0.5966366109
H 1.2554236315 -1.6430789255 -1.0970046787
*
