! r2scan-3c def2/J RI DEFGRID2 scfconv6 printgap
%output
    printlevel normal
end
%cpcm
    smd true
    smdsolvent "water"
end
* xyz 0 1
C -2.4791528476 0.8812285849 -0.6789024078
C -1.845608203 -0.4932972459 -0.4850794737
C -1.1774364803 -0.6973997672 0.8823826475
C 0.3212373574 -0.37651752 0.9978224697
C 1.1967422925 -1.2394600315 0.0632198837
C 2.1392300206 -0.2690321478 -0.6544322352
C 1.35300896 1.0375581204 -0.6997541285
C 0.6990919406 1.0822337507 0.6784670393
H -3.0375875077 0.9031310877 -1.6126546543
H -3.168011624 1.1015165551 0.1340361121
H -1.730699582 1.6668063842 -0.7188909619
H -2.6357215266 -1.2411933709 -0.5894786087
H -1.128813086 -0.6720654053 -1.2866330594
H -1.7144858198 -0.1044549275 1.6265363997
H -1.2927209296 -1.746952254 1.1664402018
H 0.5883234052 -0.5875211015 2.0384939406
H 1.7491471189 -1.9961626417 0.6192201285
H 0.5733289875 -1.7598606855 -0.6633666429
H 3.0481924933 -0.1265142054 -0.0672947705
H 2.4244423399 -0.6245774831 -1.643819826
H 1.9882241341 1.9025774858 -0.8876430582
H 0.5949112065 0.9916852917 -1.4820306072
H 1.4315648003 1.4346984334 1.4073072498
H -0.1582308582 1.7489122618 0.7237165409
*
