! r2scan-3c def2/J RI DEFGRID2 scfconv6 printgap
%output
    printlevel normal
end
%cpcm
    smd true
    smdsolvent "water"
end
* xyz 0 1
C -1.3387389036 -0.3458971854 -0.4666142065
C 0.0035675119 -0.0329884683 0.2064549293
C 1.1643373539 -0.685796014 -0.55304065
O 2.3884847392 -0.6285417062 0.1327646053
O 0.2227816701 1.3592068547 0.2513026316
O -2.3502198704 0.2466475685 0.3210856013
H -1.4735999478 -1.4320142184 -0.5238618134
H -1.3357982677 0.0750998668 -1.4792262978
H -0.0314078813 -0.4294691721 1.235010414
H 1.3258805269 -0.1416422503 -1.48547403
H 0.9009357412 -1.7270669848 -0.7825233656
H 2.2911706058 -1.0398141598 1.0035438097
H -0.5729939371 1.7737198569 0.6180399588
H -3.212194444 0.0948189784 -0.0884702639
*
