! r2scan-3c def2/J RI DEFGRID2 scfconv6 printgap
%output
    printlevel normal
end
* xyz 0 1
C 2.8345900132 -0.281621201 0.1736646886
C 1.5159518455 0.292117123 -0.3324331468
C 0.3207610393 -0.4825018544 0.2215629499
C -1.0284052759 -0.0014503423 -0.3291965577
H -0.9690582193 0.050504345 -1.4294742346
C -2.1510860733 -0.9589924368 0.0604824503
O -1.385851751 1.2772929759 0.1735513857
H 2.9393145188 -1.3204043643 -0.1305698527
H 2.8766323411 -0.2370904896 1.2594615459
H 3.6741188291 0.2809894846 -0.2269503278
H 1.4517086994 1.3410838192 -0.0351964579
H 1.4977756966 0.249858807 -1.4243134285
H 0.433313388 -1.5376745225 -0.0321722641
H 0.2985453056 -0.3963679792 1.3100634168
H -3.1009291525 -0.5693314036 -0.2951917005
H -1.9789199637 -1.938448384 -0.374121748
H -2.1982641463 -1.0455713242 1.1426618976
H -0.7029375719 1.9169953556 -0.0652361707
*
