  23
        -23.15919951
 C          1.8200577185        1.3269923892        0.0041356243
 C          0.9922308831        0.3314983886        0.8099046562
 C         -0.0000959301       -0.5229610946        0.0000333864
 C          0.7573040010       -1.4243578565       -0.9819082990
 C         -0.7583202669       -1.4235687806        0.9820173010
 C         -0.9916784874        0.3321669278       -0.8100010735
 C         -1.8194866471        1.3276645065       -0.0041822921
 H          2.4176923207        0.8227201655       -0.7504542462
 H          2.4981808764        1.8593056859        0.6685125642
 H          1.1875672620        2.0610232381       -0.4878085413
 H          1.6744591606       -0.3483785949        1.3270023430
 H          0.4405643768        0.8757971626        1.5789842875
 H          0.0693797133       -2.1140105148       -1.4666728787
 H          1.5137001314       -2.0073882730       -0.4608999714
 H          1.2460465019       -0.8392763737       -1.7565877887
 H         -1.5154196791       -2.0058214843        0.4611326527
 H         -0.0710339538       -2.1139356995        1.4666677179
 H         -1.2463124367       -0.8380238734        1.7568232839
 H         -0.4393752608        0.8765817301       -1.5785286015
 H         -1.6739076941       -0.3471893790       -1.3277937273
 H         -1.1869416637        2.0613890439        0.4881544963
 H         -2.4972679708        1.8603001931       -0.6686115650
 H         -2.4174659997        0.8233227437        0.7500882786
