  23
        -23.15919951
 C          1.8200577185        1.3269923892        0.0041356243
 C          0.9922308831        0.3314983886        0.8099046562
 C         -0.0000959301       -0.5229610946        0.0000333864
 C          0.7573040010       -1.4243578565       -0.9819082990
 C         -0.7583202669       -1.4235687806        0.9820173010
 C         -0.9916784874        0.3321669278       -0.8100010735
 C         -1.8194866471        1.3276645065       -0.0041822921
 H          2.4176923207        0.8227201655       -0.7504542462
 H          2.4981808764        1.8593056859        0.6685125642
 H          1.1875672620        2.0610232381       -0.4878085413
 H          1.6744591606       -0.3483785949        1.3270023430
 H          0.4405643768        0.8757971626        1.5789842875
 H          0.0693797133       -2.1140105148       -1.4666728787
 H          1.5137001314       -2.0073882730       -0.4608999714
 H          1.2460465019       -0.8392763737       -1.7565877887
 H         -1.5154196791       -2.0058214843        0.4611326527
 H         -0.0710339538       -2.1139356995        1.4666677179
 H         -1.2463124367       -0.8380238734        1.7568232839
 H         -0.4393752608        0.8765817301       -1.5785286015
 H         -1.6739076941       -0.3471893790       -1.3277937273
 H         -1.1869416637        2.0613890439        0.4881544963
 H         -2.4972679708        1.8603001931       -0.6686115650
 H         -2.4174659997        0.8233227437        0.7500882786
  23
        -23.15877237
 C          2.1817067387        1.1148261138        0.0372256502
 C          1.2983823430        0.1661152686        0.8407817677
 C          0.0154131576       -0.3256317965        0.1384529750
 C          0.3734456128       -1.0966795066       -1.1347616390
 C         -0.6954005120       -1.2756146740        1.1091373870
 C         -0.8835745944        0.8804737835       -0.1893382218
 C         -2.2647999432        0.5398619594       -0.7402428857
 H          1.6620580257        2.0403746884       -0.1953617893
 H          2.5090363950        0.6554234817       -0.8914349812
 H          3.0670534499        1.3654819165        0.6183414567
 H          1.8940257389       -0.7097376183        1.1110061604
 H          1.0117032403        0.6624506421        1.7716000854
 H          0.7542065309       -0.4289914520       -1.9033185336
 H         -0.4995954543       -1.6079789949       -1.5323273503
 H          1.1321486159       -1.8465547572       -0.9204988804
 H         -0.0186289098       -2.0680333514        1.4223576433
 H         -1.0271818017       -0.7403450894        1.9963794603
 H         -1.5590225898       -1.7397796961        0.6411447103
 H         -1.0093153605        1.4749618162        0.7193720834
 H         -0.3720535536        1.5049478044       -0.9239521192
 H         -2.8618762535        0.0013811176       -0.0094564560
 H         -2.7920962554        1.4581960740       -0.9916106929
 H         -2.1904425004       -0.0617317338       -1.6422082605
  23
        -23.15839470
 C          2.5170449414        0.1708295110        0.6281249063
 C          1.1796539161        0.8562833794        0.3675547015
 C          0.0000243396       -0.0688752399       -0.0001315347
 C          0.3691028862       -0.9523057865       -1.1934009700
 C         -0.3696423650       -0.9511995274        1.1937455869
 C         -1.1790142743        0.8567344084       -0.3686118480
 C         -2.5171285114        0.1720239263       -0.6273572839
 H          3.2525590450        0.9152661354        0.9266866462
 H          2.8869650595       -0.3253735041       -0.2649162504
 H          2.4403258105       -0.5615119205        1.4274219202
 H          0.9016068155        1.4235353521        1.2595837207
 H          1.3173031980        1.5752404605       -0.4443880346
 H          0.7108457012       -0.3445705895       -2.0287131823
 H         -0.4883473855       -1.5344842339       -1.5202323171
 H          1.1577932657       -1.6500403739       -0.9252596654
 H         -1.1589403376       -1.6484307235        0.9261287022
 H          0.4873611513       -1.5338817556        1.5208550538
 H         -0.7107495645       -0.3426252436        2.0286678192
 H         -1.3156537844        1.5770810044        0.4422631810
 H         -0.9009413199        1.4223524245       -1.2616666983
 H         -2.8872166533       -0.3219566040        0.2668169717
 H         -3.2520429176        0.9164908593       -0.9272054339
 H         -2.4413558726       -0.5620376634       -1.4251314858
  23
        -23.15614291
 C          1.8364822574        1.2420504483        0.0922488285
 C          0.9079203392        0.3587028577        0.9218584940
 C         -0.0851150630       -0.5359287558        0.1463154023
 C          0.5051041049       -1.0295964773       -1.1759063620
 C         -0.3810506040       -1.7649701264        1.0194834691
 C         -1.4345668217        0.1702191412       -0.0942219973
 C         -1.3930050848        1.4989216805       -0.8398954831
 H          1.2885298867        1.8913114888       -0.5826399515
 H          2.5257734099        0.6399000286       -0.4935554590
 H          2.4254553510        1.8685506392        0.7601350519
 H          1.5405704243       -0.2879577526        1.5353075107
 H          0.3365857407        0.9884925156        1.6078965149
 H         -0.1811612546       -1.7291914300       -1.6491933409
 H          1.4469318682       -1.5449072742       -1.0007057384
 H          0.6844984603       -0.2110482648       -1.8659036876
 H         -0.7406303447       -1.4609644111        2.0004776623
 H         -1.1412037048       -2.3910501744        0.5568354087
 H          0.5165580085       -2.3646742658        1.1545213834
 H         -2.0757868459       -0.5174374528       -0.6520790116
 H         -1.9088343683        0.3382199970        0.8765010188
 H         -0.8782648981        2.2593424196       -0.2592837039
 H         -0.9023677765        1.3975232420       -1.8043602657
 H         -2.4095609883        1.8460668968       -1.0167313709
  23
        -23.15515380
 C          1.8224557350        1.3073676648        0.1159567987
 C          1.0531288219        0.2517255276        0.9036743105
 C         -0.0697060684       -0.5167113934        0.1738358027
 C          0.3961774183       -1.0142699430       -1.1948020876
 C         -0.3925875383       -1.7443743778        1.0417702294
 C         -1.3785741172        0.2944133993        0.0601765710
 C         -1.4599520344        1.3684958671       -1.0197921946
 H          2.3182436366        0.8716485972       -0.7469675889
 H          2.5879600924        1.7412122720        0.7572917989
 H          1.1789253290        2.1125531726       -0.2227071116
 H          1.7821684545       -0.4845914811        1.2531842239
 H          0.6228674177        0.7220990585        1.7914580489
 H          0.6429865584       -0.1906383407       -1.8570767907
 H         -0.3869095099       -1.6077972810       -1.6623766943
 H          1.2786445379       -1.6411367131       -1.0833597173
 H          0.4867914534       -2.3732619073        1.1629242060
 H         -0.7309196140       -1.4364802045        2.0290583721
 H         -1.1759429177       -2.3448708018        0.5842932711
 H         -2.1893336145       -0.4148401444       -0.1283006649
 H         -1.5778639504        0.7575869276        1.0299020115
 H         -0.7265478040        2.1538565913       -0.8692591023
 H         -1.3174791518        0.9439541289       -2.0095784466
 H         -2.4473134759        1.8265092337       -0.9915993933
