! pbe def2-sv(p) def2/J RI DEFGRID1 loosescf d4 GCP(DFT/SV(P)) printgap
%output
    printlevel normal
end
* xyz 0 1
C -1.0237933174 -0.271885256 -0.4861105071
C 0.1167081844 0.4078051185 0.275328738
C 1.4824289515 -0.0978635443 -0.2303620548
O 1.6484706495 -1.4845033815 -0.0727560221
O 0.0029054789 1.8016532567 0.0863598704
O -2.1626414831 -0.3217397592 0.3458370522
H -0.7052649381 -1.28474442 -0.7638959456
H -1.220339617 0.3135324512 -1.3915559248
H -0.0060104499 0.1553886376 1.3394375835
H 2.2846863591 0.4511041301 0.2798347774
H 1.557216241 0.0981360756 -1.3026707737
H 1.6460231585 -1.7045236598 0.8698211165
H 0.6121304928 2.2651956387 0.677368589
H -2.9088049296 -0.6747153683 -0.1571540481
*
