! pbe def2-sv(p) def2/J RI DEFGRID1 loosescf d4 GCP(DFT/SV(P)) printgap
%output
    printlevel normal
end
* xyz 0 1
C -2.3505640901 -0.2085978567 -0.1684804287
O -1.1082505955 0.0341484844 0.4562022511
C -0.0678764878 0.2926019792 -0.4658217997
C 1.2437597578 0.4660392555 0.3041408573
O 2.1566464207 -0.5206277699 -0.1292281749
H -2.2955557886 -1.0885380027 -0.8184883966
H -2.6632758514 0.6565905646 -0.7632299729
H -3.0639119461 -0.3839452965 0.632456156
H 0.0492453275 -0.5555534729 -1.1554442786
H -0.3092236192 1.1894543555 -1.0528500318
H 1.0158472561 0.3496141229 1.3703050142
H 1.658802656 1.465776425 0.1313270421
H 2.9641385531 -0.4657176327 0.3999879355
*
