! pbe def2-sv(p) def2/J RI DEFGRID1 loosescf d4 GCP(DFT/SV(P)) printgap
%output
    printlevel normal
end
* xyz 0 1
C 2.5509530002 -0.4006227206 -0.5463446741
C 1.2784203701 -0.0765567124 0.2388559238
H 1.2254149899 -0.7360651913 1.1221853934
C 0.0339401313 -0.3057975708 -0.6274769524
C -1.2700555664 -0.4795339765 0.1603514003
C -1.741329635 0.8371386145 0.7715579055
C -2.3558342179 -1.05006661 -0.751605984
O 1.2851295848 1.2745275428 0.6734714128
H 2.5487059129 -1.4435898128 -0.8484628393
H 2.6057510367 0.2259315828 -1.4334032766
H 3.4332974894 -0.2208931571 0.0643914111
H -0.063222747 0.5418143904 -1.3081225121
H 0.2023564982 -1.2052841134 -1.221541218
H -1.0875578985 -1.1955707333 0.9706033054
H -2.0023113811 1.5423549218 -0.0146235938
H -0.9554636387 1.2808999792 1.3752102641
H -2.6168888112 0.6755379555 1.3963752011
H -2.0619811737 -2.0209712233 -1.1436175591
H -3.2869014261 -1.1683633103 -0.2026887422
H -2.5341827855 -0.3794373203 -1.589237919
H 2.1146742801 1.4543866698 1.1354535012
*
