! r2scan-3c def2/J RI DEFGRID2 scfconv6 printgap
%output
    printlevel normal
end
* xyz 0 1
C -2.9753218905 -1.1269150629 -0.473463729
C -1.806419558 -0.387657807 0.1796439455
C -2.3403607232 0.7096221813 1.0971119803
C -0.894511473 0.1730376088 -0.9185124778
C 0.3698017653 0.924259168 -0.4840042457
C 1.5895729986 0.1187957592 0.0116198297
C 1.9320335052 -1.0229787827 -0.9481554808
C 2.7773357355 1.0909537532 0.059280429
C 1.3867142883 -0.4451524859 1.4201051551
H -3.6262222342 -1.5577824033 0.2839463651
H -2.6150699126 -1.9303683725 -1.112230981
H -3.563641876 -0.4432650418 -1.0821216693
H -1.2525260671 -1.1083176759 0.7858721277
H -1.5377058462 1.1768751395 1.660622442
H -2.8475052929 1.476309548 0.5147891878
H -3.0504448892 0.2926074375 1.8077507613
H -0.6149654959 -0.641151105 -1.5884924706
H -1.4945035581 0.8745273625 -1.5063590547
H 0.1086909557 1.6572054336 0.281020724
H 0.7040931921 1.4888069543 -1.3592691941
H 2.0157420754 -0.6540293801 -1.9680279716
H 2.8821971248 -1.4723804632 -0.6676571606
H 1.172628989 -1.8000344892 -0.9193784903
H 3.6670224023 0.5895342677 0.4336507964
H 2.9980030846 1.4797740613 -0.9323402904
H 2.557253626 1.9304701233 0.7152308749
H 1.056627583 0.3335001765 2.1037883666
H 2.3240840937 -0.8517527866 1.7948313074
H 0.6533359344 -1.2452768675 1.4261822909
*
