! pbe def2-sv(p) def2/J RI DEFGRID1 loosescf d4 GCP(DFT/SV(P)) printgap
%output
    printlevel normal
end
* xyz 0 1
C -1.3856904459 1.5868903874 0.1315858945
C -1.2945350231 0.1494230208 -0.3662351807
C -0.130048277 -0.6370777731 0.2483597846
H -0.1233731828 -0.4639226837 1.3295647864
C -0.3075278852 -2.1308251896 -0.0224971444
C 1.2319179549 -0.1825533231 -0.2907484722
O 1.6156448603 1.0442730312 0.2996994253
H -0.4615031865 2.121119656 -0.0667991105
H -2.2051619132 2.1059253932 -0.3602430788
H -1.5598203526 1.6039789511 1.2051482732
H -1.1911801314 0.144535185 -1.4540406339
H -2.2261566385 -0.3660316152 -0.1214997775
H -1.2563431732 -2.4758074333 0.3792370025
H 0.4903420156 -2.7061357659 0.4405070232
H -0.2961278773 -2.3224585273 -1.0932183269
H 1.1778491274 -0.0785666642 -1.3837089264
H 1.9789012009 -0.9530210631 -0.0543845467
H 2.4996407421 1.282366081 -0.0084728753
*
