! r2scan-3c def2/J RI DEFGRID2 scfconv6 printgap
%output
    printlevel normal
end
%cpcm
    smd true
    smdsolvent "water"
end
* xyz 0 1
C -2.780850023 0.3128831595 0.000275819
C -1.3009736399 0.6764472565 -0.002446671
C -0.4287880742 -0.5758930154 0.0016744334
C 1.0505860623 -0.3054497932 0.0006213705
O 1.8938337702 -1.1813930142 0.0024682091
O 1.3677021239 0.9768186543 -0.0024034556
H -3.3902679867 1.2123925656 -0.003092746
H -3.0304144885 -0.2681414341 0.8847910872
H -3.0317461606 -0.2756071799 -0.8789072228
H -1.0704406203 1.2743515181 -0.885277793
H -1.068879016 1.2811811287 0.8752975928
H -0.6414899461 -1.1909481748 0.8795913523
H -0.6416719676 -1.1970130816 -0.8718888352
H 2.3334385335 1.1242742886 -0.0030302323
*
