  27
        -33.60620227
 C         -3.4193417017       -0.5857955994       -0.0686104673
 C         -1.9246538650       -0.4945837552       -0.0790997975
 C         -1.1331497566       -1.5008971641        0.2657506243
 C          0.3626919248       -1.4440753386        0.2775550960
 C          0.8694304543        0.0032403414        0.2866210851
 H          0.6220567041        0.4356809988        1.2638745763
 C          0.1231424443        0.7866372205       -0.7953984456
 C         -1.3740337831        0.8596157707       -0.4727285053
 H         -1.9161689456        1.2260164241       -1.3532867411
 O         -1.6573869770        1.8278774654        0.5237712850
 C          2.3692863882        0.0573553990        0.1301380582
 C          3.1542358495        0.2937867504        1.1698172020
 C          2.9300104167       -0.1774369622       -1.2396830940
 H         -3.7551558631       -1.5123608448        0.3896561009
 H         -3.8040329807       -0.5383559830       -1.0874945442
 H         -3.8335017383        0.2590187646        0.4798587339
 H         -1.5666867977       -2.4532190043        0.5433328805
 H          0.7463146467       -1.9764013879        1.1518534299
 H          0.7407388680       -1.9674262365       -0.6067993887
 H          0.5148475233        1.8033568177       -0.8673342287
 H          0.2457305947        0.2945799388       -1.7607352512
 H         -1.2137449387        1.5610193211        1.3368789275
 H          4.2272699053        0.3167252567        1.0803218753
 H          2.7593821694        0.4755957106        2.1555412444
 H          4.0092068918       -0.2981061288       -1.1948978015
 H          2.4981716339       -1.0678312964       -1.6928230976
 H          2.7062677760        0.6687351483       -1.8883340032
