  13
        -24.00723441
 C         -2.4151755510       -0.0574843474       -0.0000148700
 C         -1.8545287214       -1.3238328503        0.0000652984
 C         -0.4778504081       -1.4685620905        0.0000019456
 C          0.3234519251       -0.3431103814       -0.0000756710
 C         -0.2248403568        0.9406598985        0.0000043185
 C         -1.6110294649        1.0658790289       -0.0000970562
 O          0.5422652342        2.0492189940        0.0000888944
 Cl         2.0623738587       -0.5015057931       -0.0000120472
 H         -3.4881328934        0.0575760746       -0.0000311090
 H         -2.4833066713       -2.2001962929        0.0003904473
 H         -0.0258770930       -2.4482047258        0.0000801221
 H         -2.0309788649        2.0588276642       -0.0001434626
 H          1.4753357273        1.7819926906        0.0000994245
