  12
  -16.9882526200000       0.333338036426054      !md1
 C          2.2913878305        0.1481929603        0.0000575496
 C          0.8092878325        0.2680659359       -0.0000640188
 C          0.0486483820        1.3934822720       -0.0000686029
 C         -1.3420517185        1.1304684425        0.0000411755
 C         -1.6203421754       -0.1948038450        0.0000302653
 S         -0.1896968029       -1.1527388681       -0.0000152704
 H          2.6340113308       -0.3945443437        0.8807947747
 H          2.6340676766       -0.3956885865       -0.8799019643
 H          2.7438228510        1.1370588410       -0.0005705542
 H          0.4642424824        2.3857241375       -0.0000120215
 H         -2.0943144165        1.8989624883        0.0001432484
 H         -2.5754389575       -0.6809822676        0.0000755211
  12
  -16.9882526100000       0.333334509078519      !md1
 C          2.2913861858        0.1482540962        0.0000865762
 C          0.8092784729        0.2680125355       -0.0001428009
 C          0.0486735340        1.3934591195       -0.0000463159
 C         -1.3420220400        1.1304726412        0.0000212976
 C         -1.6203428017       -0.1947990553        0.0000494608
 S         -0.1897171711       -1.1527443780       -0.0000184490
 H          2.6340605892       -0.3976725202       -0.8786763589
 H          2.7437480712        1.1371862107       -0.0026773459
 H          2.6341495847       -0.3924579104        0.8820909168
 H          0.4643316664        2.3856925648        0.0000078640
 H         -2.0943043794        1.8989652721        0.0000803115
 H         -2.5754614858       -0.6809314748        0.0001401956
  12
  -16.9882525900000       0.333327454495427      !md1
 C          2.2913799675        0.1481950020       -0.0001599344
 C          0.8092901154        0.2680740643        0.0001920531
 C          0.0486544659        1.3934841068        0.0000333803
 C         -1.3420451239        1.1304693399       -0.0000478708
 C         -1.6203223204       -0.1948066094       -0.0000821395
 S         -0.1897047653       -1.1527442793        0.0000664679
 H          2.7437972289        1.1370685357        0.0058918559
 H          2.6338212658       -0.4005595798        0.8768863830
 H          2.6341993616       -0.3896865492       -0.8838483110
 H          0.4642758211        2.3857337005        0.0000730533
 H         -2.0943210883        1.8989564304       -0.0001364151
 H         -2.5754495480       -0.6809309553       -0.0002120543
