  20
        -30.34048415
 C          2.6934616737       -1.4276743609       -0.0004189960
 O          1.2908888647       -1.3559431251        0.0002747921
 C          0.7066292222       -0.1240273083        0.0002530686
 C          1.3854097288        1.0816225485        0.0001787258
 C          0.6886574545        2.2835396550       -0.0000124049
 C         -0.6880542044        2.2837087095       -0.0001440836
 C         -1.3851168535        1.0819608276       -0.0001147194
 C         -0.7066808181       -0.1238775770        0.0000691624
 O         -1.2912282773       -1.3556312714        0.0001950327
 C         -2.6938525294       -1.4271442314       -0.0002016916
 H          3.1231971431       -0.9611010105        0.8927956720
 H          3.1222457846       -0.9612489222       -0.8941465124
 H          2.9327851290       -2.4900358080       -0.0004797604
 H          2.4636245572        1.1014706481        0.0001130453
 H          1.2365245659        3.2134535521       -0.0000671972
 H         -1.2357174726        3.2137650826       -0.0001151707
 H         -2.4633200948        1.1021260635        0.0000156831
 H         -2.9334361670       -2.4894070589       -0.0007627589
 H         -3.1227547370       -0.9601480090       -0.8934965419
 H         -3.1231672419       -0.9610016785        0.8933443045
