  20
        -30.34048415
 C          2.6934616737       -1.4276743609       -0.0004189960
 O          1.2908888647       -1.3559431251        0.0002747921
 C          0.7066292222       -0.1240273083        0.0002530686
 C          1.3854097288        1.0816225485        0.0001787258
 C          0.6886574545        2.2835396550       -0.0000124049
 C         -0.6880542044        2.2837087095       -0.0001440836
 C         -1.3851168535        1.0819608276       -0.0001147194
 C         -0.7066808181       -0.1238775770        0.0000691624
 O         -1.2912282773       -1.3556312714        0.0001950327
 C         -2.6938525294       -1.4271442314       -0.0002016916
 H          3.1231971431       -0.9611010105        0.8927956720
 H          3.1222457846       -0.9612489222       -0.8941465124
 H          2.9327851290       -2.4900358080       -0.0004797604
 H          2.4636245572        1.1014706481        0.0001130453
 H          1.2365245659        3.2134535521       -0.0000671972
 H         -1.2357174726        3.2137650826       -0.0001151707
 H         -2.4633200948        1.1021260635        0.0000156831
 H         -2.9334361670       -2.4894070589       -0.0007627589
 H         -3.1227547370       -0.9601480090       -0.8934965419
 H         -3.1231672419       -0.9610016785        0.8933443045
  20
        -30.33906914
 C          2.4054360010       -1.5734067266        0.0007889081
 O          1.0139515475       -1.3847652574       -0.0007407277
 C          0.5190861499       -0.1004984583       -0.0002786446
 C          1.3375150972        1.0225333753        0.0010108908
 C          0.8127860776        2.3034710126        0.0009519056
 C         -0.5560305056        2.4834604362       -0.0002846741
 C         -1.3830270917        1.3778749090       -0.0012984070
 C         -0.8767501919        0.0805942840       -0.0013186797
 O         -1.8419173046       -0.8833791445       -0.0031552302
 C         -1.5212217801       -2.2551751816        0.0038126229
 H          2.8739499929       -1.1469917238       -0.8924214950
 H          2.5502427215       -2.6531863768        0.0000011231
 H          2.8717792649       -1.1485571943        0.8958915350
 H          2.4091443376        0.9037769854        0.0018541861
 H          1.4810020721        3.1508715654        0.0018155695
 H         -0.9813663832        3.4749457548       -0.0003340806
 H         -2.4562546311        1.4850123799       -0.0021695872
 H         -2.4828076808       -2.7691404022        0.0040244690
 H         -0.9593944109       -2.5363078417        0.8970245207
 H         -0.9553531989       -2.5445501965       -0.8841675376
  20
        -30.33323864
 C          1.5760724275       -1.9808369530        0.6238448403
 O          1.3643089545       -1.1420610242       -0.4974732690
 C          0.6598344792        0.0165165765       -0.2371003440
 C          1.2855607988        1.2290815087       -0.4990886739
 C          0.6407215677        2.4281135556       -0.2610960590
 C         -0.6409602681        2.4280251446        0.2608339839
 C         -1.2853429452        1.2288434385        0.4993429151
 C         -0.6591603099        0.0164491625        0.2378154224
 O         -1.3632778366       -1.1425560061        0.4979417108
 C         -1.5775598963       -1.9787435084       -0.6248124824
 H          2.2366059352       -1.4921515461        1.3484358595
 H          2.0594322941       -2.8776808070        0.2398384382
 H          0.6417969858       -2.2497903832        1.1220457264
 H          2.2926841151        1.2055221308       -0.8865086485
 H          1.1453487360        3.3594453805       -0.4685502447
 H         -1.1458482526        3.3592769866        0.4680361639
 H         -2.2924574589        1.2050615869        0.8867804086
 H         -0.6442874901       -2.2466596816       -1.1255039583
 H         -2.2394765940       -1.4883248259       -1.3469707035
 H         -2.0602258301       -2.8764423933       -0.2419359637
