! r2scan-3c def2/J RI DEFGRID2 scfconv6 printgap
%output
    printlevel normal
end
* xyz 0 1
C -2.3971700813 1.1169670054 -0.1556186496
C -1.8213281579 -0.1321024712 0.5067421158
C -0.4450356366 -0.4828651352 0.0001121192
O -0.0828349814 -1.6131017632 -0.2603820957
O 0.3337091824 0.5822282144 -0.1214259398
C 1.687562995 0.3958963557 -0.5636570923
C 2.6120533077 0.1120838374 0.610352984
H -3.3825484871 1.3245511793 0.2506804157
H -1.7527215659 1.9720696852 0.0248983737
H -2.4875691201 0.970590665 -1.2288958018
H -2.4635186981 -0.9983423597 0.3459775514
H -1.7307838826 0.0329349543 1.582810467
H 1.71084394 -0.4301887402 -1.2808583156
H 1.9479086532 1.3334309367 -1.0559346417
H 2.5412147436 0.9105400257 1.3441479075
H 2.3370192337 -0.8289111317 1.0818381351
H 3.634532878 0.0416245919 0.25406248
*
