  23
        -27.20031170
 C         -4.7651154611       -0.7218780760        0.1682387921
 C         -3.6409330169        0.1644439259       -0.3535510344
 C         -2.2900605199       -0.2204050964        0.2448533755
 C         -1.1588939483        0.6658534229       -0.2704919123
 C          0.1899315714        0.2729979351        0.3262905527
 C          1.3206783444        1.1597463956       -0.1906684084
 C          2.6705944157        0.7853363467        0.3970466721
 Cl         3.1787007018       -0.8401422948       -0.1414352984
 H         -5.7172269097       -0.4319933489       -0.2701380014
 H         -4.5756261122       -1.7638140002       -0.0805194317
 H         -4.8456717068       -0.6385479115        1.2499821042
 H         -3.8587520730        1.2072942869       -0.1112924189
 H         -3.5894181439        0.0821945790       -1.4416328243
 H         -2.0715151037       -1.2623109612       -0.0001693880
 H         -2.3432851169       -0.1418498515        1.3333819891
 H         -1.3752393495        1.7082368138       -0.0231504071
 H         -1.1084208220        0.5890539738       -1.3590937947
 H          0.4072568163       -0.7666905210        0.0752775955
 H          0.1406295585        0.3496047542        1.4152301487
 H          1.3691294226        1.0934114604       -1.2793568078
 H          1.1194237811        2.2012490229        0.0740505118
 H          3.4506002405        1.4739364695        0.0724727420
 H          2.6345072059        0.7542975489        1.4860932996
