! r2scan-3c def2/J RI DEFGRID2 scfconv6 printgap
%output
    printlevel normal
end
%cpcm
    smd true
    smdsolvent "water"
end
* xyz 0 1
C 1.8506445929 0.6585368266 -0.8482709309
C 1.4048454047 0.0580048321 0.4832878462
C 1.4913332901 -1.4664336371 0.4510779754
C -0.0048779369 0.5277926867 0.861657688
C -1.1129489014 0.1393317976 -0.0801819233
O -1.0199999824 -0.5020698702 -1.1035815781
O -2.2823917599 0.6006563577 0.3520169645
H 1.2047938502 0.3130187414 -1.6513591358
H 2.8702940059 0.3573525432 -1.0738984482
H 1.8120354598 1.7448665651 -0.8125372508
H 2.0789128048 0.4230715501 1.2667316753
H 2.508727104 -1.7807338963 0.2332835791
H 1.1977968395 -1.8887736537 1.4093820698
H 0.8365828453 -1.8637823144 -0.3202032246
H -0.0308129139 1.6173692463 0.9374980905
H -0.2813290946 0.1360902667 1.8433694857
H -3.0210805843 0.3628878764 -0.2406488861
*
