! r2scan-3c def2/J RI DEFGRID2 scfconv6 printgap
%output
    printlevel normal
end
%cpcm
    smd true
    smdsolvent "water"
end
* xyz 0 1
C 0.533491208 1.6562454879 0.6137163715
C 1.8778197999 1.9326994491 0.6776246292
C 2.8389896745 0.966952802 0.3595076689
C 2.3982292997 -0.3130115345 -0.0266870373
C 1.0257184963 -0.576168927 -0.0774284182
C 0.0834908085 0.387071935 0.2327075635
C -1.3513777853 0.0681895756 0.1702844719
C -1.8355561827 -1.142761669 0.6656433707
C -3.1794833913 -1.4622184423 0.6183784905
C -4.056542768 -0.5523547684 0.0592796509
C -3.6330036228 0.658300584 -0.4535313983
C -2.2829999769 0.9429853985 -0.3842257078
F -1.8700849113 2.1241543233 -0.9125594485
F -5.3803916054 -0.8517184721 0.0063304694
C 3.2867359068 -1.4261905353 -0.3935161869
O 2.8908732769 -2.5305325437 -0.7181171165
O 4.5941711508 -1.1516364869 -0.3489335456
O 4.1199966011 1.3419657633 0.4513338307
H -0.1779134509 2.4239080523 0.8738788769
H 2.2313484411 2.9064003697 0.9759121643
H 0.724142529 -1.5636605768 -0.3930687494
H -1.1395468709 -1.8362843603 1.108456931
H -3.5490534558 -2.3962619866 1.0070902998
H -4.3241454146 1.3557942857 -0.8960053447
H 5.1366482962 -1.9236057502 -0.6016098663
H 4.7247342274 0.6152096 0.2115641621
*
