! pbe def2-sv(p) def2/J RI DEFGRID1 loosescf d4 GCP(DFT/SV(P)) printgap
%output
    printlevel normal
end
* xyz 0 1
C 0.073158989 -2.104926862 0.5089419131
C -0.0974567057 -1.1717890412 -0.6769717989
O 0.8875468303 -0.1716141274 -0.8882302228
C 1.7334387682 0.3177667475 0.0394898539
O 1.8980322981 -0.1387210251 1.1420252878
C 2.5009977862 1.4685851703 -0.5369212505
O -1.387901367 -0.5547882029 -0.6624830506
C -1.6677520871 0.4719886108 0.154214466
O -0.8693580919 0.969539241 0.9151009731
C -3.0829264175 0.9185149738 -0.0325322484
H -0.7003861274 -2.8652456373 0.4490084415
H -0.0199827594 -1.5610575529 1.4453923202
H 1.0519810877 -2.5727599361 0.4725024883
H -0.1094298658 -1.7384648643 -1.6172399161
H 3.373079616 1.0717362167 -1.0524942008
H 1.8881018013 2.0101565559 -1.2492309795
H 2.8322887093 2.1154642081 0.268809409
H -3.1755478154 1.3838519016 -1.0109155362
H -3.741912448 0.0560931656 -0.0058460965
H -3.3432023985 1.6327507524 0.7413538812
*
