  16
        -17.08808647
 C         -2.3852065451        0.1347720106       -0.1403440376
 C         -0.9577158566        0.3753769243        0.3342294268
 N         -0.0705850048       -0.6325816452       -0.2214674353
 C          1.2987616276       -0.5838873704        0.2550972368
 C          2.1132744620        0.6400727315       -0.1794185983
 H         -2.4515491187        0.2530865047       -1.2193667051
 H         -2.6950005528       -0.8738258973        0.1163977341
 H         -3.0597028471        0.8447834829        0.3299283885
 H         -0.9107025319        0.2825566864        1.4238131176
 H         -0.6587481556        1.4052252635        0.0720351037
 H         -0.0803724015       -0.5670972194       -1.2352494167
 H          1.2673266144       -0.6333707790        1.3473956029
 H          1.7922555056       -1.4893348689       -0.1097842400
 H          3.1356666151        0.5474843243        0.1757876773
 H          2.1286216773        0.7182575729       -1.2650108469
 H          1.6895130157        1.5543110168        0.2294884245
  16
        -17.08789593
 C         -2.4551889796        0.1208900234       -0.2587019169
 C         -1.1930385974       -0.2392826523        0.5119358569
 N         -0.0095727031        0.1684503984       -0.2232509228
 C          1.2298651354       -0.2045990421        0.4339089060
 C          2.4289847734        0.1896354354       -0.4165204994
 H         -2.4612038590        1.1841517599       -0.4790481074
 H         -2.4985949444       -0.4284195795       -1.1964751260
 H         -3.3345015426       -0.1250327870        0.3297576153
 H         -1.1887286988       -1.3240288939        0.7343773352
 H         -1.1795339915        0.2902133717        1.4703180699
 H         -0.0335613364       -0.2478299211       -1.1506771030
 H          1.2632157306        0.3259013799        1.3912555379
 H          1.2704430824       -1.2886605938        0.6560049994
 H          2.3893120944        1.2517641740       -0.6386817053
 H          3.3509879525       -0.0281787663        0.1148859977
 H          2.4286142930       -0.3616388277       -1.3541097445
  16
        -17.08692955
 C         -1.7690794767        0.7932460493       -0.3672562806
 C         -1.1627633036       -0.2769731724        0.5447555448
 N         -0.0240503241       -1.0011508208        0.0031364699
 C          1.2971281649       -0.4716724866        0.2777374494
 C          1.6657751083        0.8602746865       -0.3870030518
 H         -2.0776473718        0.3476843618       -1.3111158156
 H         -2.6442091752        1.2279568489        0.1089982215
 H         -1.0603139406        1.5892925161       -0.5773848695
 H         -1.9388672781       -1.0215277301        0.7601344597
 H         -0.8587761849        0.1689453294        1.4948150952
 H         -0.1465735783       -1.1359853736       -0.9948986141
 H          1.3898257123       -0.3730345047        1.3632392360
 H          2.0082620035       -1.2363711243       -0.0494632182
 H          2.7201738660        1.0688891038       -0.2251968837
 H          1.4831800354        0.8135410282       -1.4589510320
 H          1.0890374271        1.6803637949        0.0331578940
  16
        -17.08681705
 C         -1.7272916094        0.9013564108       -0.1128880591
 C         -1.2405683438       -0.5521201334       -0.1366159479
 N          0.0077007773       -0.8368261386        0.5450657452
 C          1.2496209437       -0.5466235998       -0.1451216268
 C          1.7112852252        0.9153684227       -0.1586825944
 H         -1.7476967719        1.2749997381        0.9090615060
 H         -1.0865266535        1.5479722926       -0.7055129233
 H         -2.7342126247        0.9550203034       -0.5189993530
 H         -1.1377742998       -0.8910488734       -1.1707103338
 H         -2.0023624671       -1.1759602073        0.3445463257
 H          0.0095383895       -0.4059176231        1.4635192994
 H          2.0222434431       -1.1460558687        0.3493867640
 H          1.1506675615       -0.9119766892       -1.1707197105
 H          1.7158653509        1.3187994802        0.8520370946
 H          2.7207245379        0.9743450630       -0.5575659672
 H          1.0653828726        1.5331121427       -0.7761868053
  16
        -17.08654419
 C         -2.1004888663       -0.4083912231       -0.4609259076
 C         -1.2758633173        0.2353241080        0.6499085339
 N          0.0422304963        0.6326771948        0.1806994213
 C          0.9552663921       -0.4776051737       -0.0382740735
 C          2.3541148660        0.0360585687       -0.3473038614
 H         -1.6988633706       -1.3804682267       -0.7333022994
 H         -3.1255873940       -0.5412514899       -0.1263350011
 H         -2.0927294076        0.2316215369       -1.3381954065
 H         -1.2150146966       -0.4615435721        1.5072943864
 H         -1.7849283883        1.1412476093        0.9876038383
 H          0.4591333304        1.2617154613        0.8605324971
 H          0.9915670595       -1.1558923406        0.8360091735
 H          0.5840916451       -1.0539297904       -0.8896774805
 H          2.7595094620        0.5774970327        0.5048894965
 H          3.0150728108       -0.7948538405       -0.5772248606
 H          2.3189320685        0.7077568170       -1.2000058634
  16
        -17.08644730
 C         -1.9485295486        0.2715885988        0.6285842098
 C         -1.0679979482        0.2360913246       -0.6171648060
 N         -0.0208445593       -0.7713835574       -0.5087774871
 C          1.0480960883       -0.4884588630        0.4347943554
 C          1.9634263949        0.6851767488        0.0681838192
 H         -1.4121754195        0.6830206471        1.4793113437
 H         -2.8205882043        0.8922596668        0.4418732459
 H         -2.2746254077       -0.7347283334        0.8745829301
 H         -0.6729323292        1.2473094669       -0.8122429868
 H         -1.6843907461       -0.0477059289       -1.4741153524
 H          0.3872821134       -0.9237604708       -1.4255722718
 H          0.5973772119       -0.3121070734        1.4130517850
 H          1.6491886801       -1.3997403035        0.5047214181
 H          2.7642757819        0.7693358696        0.7974000322
 H          2.4039168792        0.5293231926       -0.9151347209
 H          1.4119751594        1.6225296706        0.0566578376
  16
        -17.08643896
 C         -1.9351011594        0.2681579077       -0.5962273568
 C         -1.0515947725        0.2472830552        0.6474027048
 N         -0.0053098204       -0.7625141421        0.5517471374
 C          1.0364726342       -0.5199483948       -0.4325539632
 C          1.9296585883        0.6981293278       -0.1711335986
 H         -1.4040038110        0.6794657912       -1.4503697903
 H         -2.2541232348       -0.7421206483       -0.8354902582
 H         -2.8116043369        0.8829213543       -0.4107103193
 H         -1.6652305944       -0.0253851189        1.5101257330
 H         -0.6551558537        1.2605466060        0.8290075406
 H          0.4274842253       -0.8737053474        1.4632333852
 H          1.6582766720       -1.4195721535       -0.4524159569
 H          0.5609155527       -0.4238363431       -1.4103429564
 H          2.3868489991        0.6288613494        0.8144771745
 H          2.7183540009        0.7425197259       -0.9168980565
 H          1.3570769346        1.6211956389       -0.2240929981
  16
        -17.08643950
 C         -1.9773768177        0.2669245744       -0.5723576085
 C         -1.0280521381        0.2656801439        0.6311728558
 N          0.0421513968       -0.7170746251        0.5883672413
 C          1.0566684606       -0.5213226778       -0.4390992653
 C          1.9346946887        0.6909919412       -0.1429891866
 H         -2.4182307901       -0.7191713592       -0.7082784497
 H         -2.7765343854        0.9847005679       -0.4101150379
 H         -1.4521686405        0.5408612529       -1.4844465778
 H         -1.6035398007        0.0577203746        1.5378875273
 H         -0.5760467799        1.2526661513        0.7442045221
 H         -0.3676480261       -1.6389067597        0.4760100114
 H          1.6822310698       -1.4177036631       -0.4315025291
 H          0.6296981461       -0.4226050418       -1.4513627575
 H          2.2878233967        0.6448842886        0.8830335968
 H          2.7897332482        0.6951994772       -0.8133971939
 H          1.3865414976        1.6187026420       -0.2828109425
  16
        -17.08363364
 C         -1.6660392233        0.8120385907       -0.3640680468
 C         -1.2998784690       -0.5623441754        0.1862897793
 N          0.0478320719       -0.5909872624        0.7303223509
 C          1.1215493308       -0.5260693278       -0.2576515401
 C          1.7927772756        0.8468874855       -0.2605183089
 H         -2.7194755769        0.8308640724       -0.6308659046
 H         -1.4770313121        1.5710698454        0.3892846986
 H         -1.0826329081        1.0424451290       -1.2512041825
 H         -1.4404677041       -1.3167772823       -0.6110057256
 H         -1.9810923493       -0.8088805120        1.0045489901
 H          0.1520735141       -1.4202725011        1.3006899040
 H          1.8799212022       -1.2779132940       -0.0200313208
 H          0.7392153525       -0.7514610006       -1.2640627140
 H          1.0808298328        1.6251650184       -0.5151934033
 H          2.1944272329        1.0599147815        0.7257122381
 H          2.6043064391        0.8601226661       -0.9836953458
