! pbe def2-sv(p) def2/J RI DEFGRID1 loosescf d4 GCP(DFT/SV(P)) printgap
%output
    printlevel normal
end
* xyz 0 1
C -2.8110120205 0.1920554049 9.42242e-05
C -1.4332574545 -0.4583012162 -0.0006160768
C -0.3212983135 0.588884257 0.0003426526
C 1.051029372 -0.0350308717 0.0001223846
O 1.2601676879 -1.2260480472 0.0001800715
O 2.0785711585 0.8170518157 -0.0001324006
H -2.9409175931 0.8122050832 0.8836597098
H -3.5859650026 -0.5692030402 -0.000707593
H -2.9409350128 0.8140882051 -0.8821444768
H -1.3202115651 -1.0981494921 0.8763836888
H -1.3203588149 -1.0965088021 -0.8788370424
H -0.4111085367 1.2244434436 -0.8841787436
H -0.4113027178 1.2230275838 0.8858757695
H 1.8134374394 1.7550764853 -0.0001309923
*
