  13
        -24.00651108
 C          0.8469893425       -1.8329600908        0.0000042693
 C          1.8672644812       -0.9031640044        0.0000041669
 C          1.5650824207        0.4563783960        0.0000017544
 C          0.2376354282        0.8696570974       -0.0000053115
 C         -0.7689330464       -0.0810155062       -0.0000117278
 C         -0.4801331990       -1.4344238248       -0.0000036554
 Cl        -2.4165106997        0.4438937098        0.0000036243
 O          2.5897605249        1.3436772196        0.0000006005
 H          1.0848788415       -2.8854655161       -0.0000070942
 H          2.9023892927       -1.2032570979       -0.0000023939
 H         -0.0100590481        1.9216629635       -0.0000017901
 H         -1.2773267730       -2.1597359073       -0.0000049385
 H          2.2481553957        2.2463540448        0.0000043739
