  13
  -24.0065110800000       0.612644451169607      !hor
 C          0.8469893425       -1.8329600908        0.0000042693
 C          1.8672644812       -0.9031640044        0.0000041669
 C          1.5650824207        0.4563783960        0.0000017544
 C          0.2376354282        0.8696570974       -0.0000053115
 C         -0.7689330464       -0.0810155062       -0.0000117278
 C         -0.4801331990       -1.4344238248       -0.0000036554
 Cl        -2.4165106997        0.4438937098        0.0000036243
 O          2.5897605249        1.3436772196        0.0000006005
 H          1.0848788415       -2.8854655161       -0.0000070942
 H          2.9023892927       -1.2032570979       -0.0000023939
 H         -0.0100590481        1.9216629635       -0.0000017901
 H         -1.2773267730       -2.1597359073       -0.0000049385
 H          2.2481553957        2.2463540448        0.0000043739
  13
  -24.0060778500000       0.387355548830393      !hor
 C          0.8266103735       -1.8400334138        0.0000047226
 C          1.8559735903       -0.9160470108        0.0000060896
 C          1.5673208918        0.4443504291        0.0000010679
 C          0.2424354733        0.8710248423       -0.0000153296
 C         -0.7695894867       -0.0699885113       -0.0000295754
 C         -0.4939471372       -1.4287797501       -0.0000104533
 Cl        -2.4120189571        0.4640928589        0.0000141939
 O          2.5377788048        1.3916869937       -0.0000002249
 H          1.0568519599       -2.8944527613        0.0000153688
 H          2.8854600779       -1.2476618007        0.0000085454
 H          0.0288629068        1.9270530361       -0.0000118063
 H         -1.2980443996       -2.1463418753        0.0000078185
 H          3.4080368104        0.9745338406        0.0000024939
