! r2scan-3c def2/J RI DEFGRID2 scfconv6 printgap
%output
    printlevel normal
end
* xyz 0 1
C -2.2322024352 1.081569088 0.3112832899
C -1.8314201869 -0.3663323386 0.0554574395
C -0.555805964 -0.5478177112 -0.7736040267
C 0.7774863621 -0.1465412511 -0.0899283507
C 1.0996295989 1.3366842015 -0.291740523
C 1.9135202111 -0.9802275874 -0.7012746591
O 0.727807422 -0.3604247834 1.3165576488
H -3.237470963 1.119538511 0.7256560934
H -2.2193725329 1.6553444483 -0.6126587223
H -1.5587036698 1.545440037 1.0265121765
H -1.7159709769 -0.8719698176 1.0155754432
H -2.6410905955 -0.8633494613 -0.4848825062
H -0.4937963867 -1.6065829128 -1.0389958253
H -0.6462365792 0.0173592394 -1.7020879819
H 0.3311965758 1.9614831476 0.1481326822
H 1.180912735 1.5614947508 -1.3507359286
H 2.0441073358 1.5672893812 0.1952549576
H 1.7437532114 -2.0427398208 -0.5365030779
H 2.8618912529 -0.7055829452 -0.2450734321
H 1.9736240492 -0.8016389771 -1.7709213865
H 0.700545389 -1.3113442497 1.4855121014
*
