! r2scan-3c def2/J RI DEFGRID2 scfconv6 printgap
%output
    printlevel normal
end
%cpcm
    smd true
    smdsolvent "water"
end
* xyz 0 1
C -1.0558378367 -0.5260109244 -0.2416384703
C 0.0102888652 0.2205301754 0.5731297812
C 1.3240780499 -0.5812930368 0.607732002
O 1.8410211719 -0.8007766496 -0.6822682721
O 0.2245437808 1.4788126933 -0.0372620888
O -2.3300035764 0.0609149622 -0.1641654273
H -1.0861032522 -1.5719139868 0.0881020985
H -0.7804062458 -0.4967138368 -1.2970259607
H -0.3515326522 0.3490905909 1.6029559097
H 1.1553331518 -1.565591452 1.0468987122
H 2.0612218328 -0.0428829748 1.2209704331
H 1.8253789491 0.0459677632 -1.1552376322
H 0.6885955989 2.0670351942 0.5741036773
H -2.6339422751 0.0522710953 0.7545617043
*
