  17
        -16.82945685
 C          2.5271687482        0.3344835946        0.0001947416
 C          1.2674352127       -0.5228545295       -0.0002058826
 C          0.0000022201        0.3282442280       -0.0002071438
 C         -1.2674372051       -0.5228483883        0.0001946304
 C         -2.5271677130        0.3344828838        0.0000078825
 H          2.5555877242        0.9701069047        0.8827207891
 H          2.5545753426        0.9724498001       -0.8807196328
 H          3.4171725298       -0.2907032339       -0.0011698270
 H          1.2681020669       -1.1682698574       -0.8818113250
 H          1.2678158788       -1.1686285255        0.8811505766
 H         -0.0001612699        0.9737877000       -0.8819436914
 H          0.0001412840        0.9741858769        0.8812400115
 H         -1.2680527703       -1.1687499673       -0.8810473892
 H         -1.2678796471       -1.1681407248        0.8818834702
 H         -3.4171709560       -0.2907031515        0.0000732703
 H         -2.5550236880        0.9711355344       -0.8818108749
 H         -2.5551215448        0.9714043848        0.8816225730
  17
        -16.82855279
 C          2.4154832279        0.2731176927       -0.1161706664
 C          0.9957064514       -0.1642409296       -0.4559982117
 C          0.0504261043        0.0267099035        0.7282407874
 C         -1.3639706401       -0.4929101417        0.4687289086
 C         -2.1187171228        0.3160176682       -0.5799324779
 H          3.0749516414        0.1337893613       -0.9698778198
 H          2.8057521300       -0.3077026077        0.7170736177
 H          2.4335943585        1.3245436056        0.1631704213
 H          0.6401483330        0.4149561445       -1.3095905002
 H          1.0005112999       -1.2177943207       -0.7457594152
 H          0.0024698792        1.0881067165        0.9836207558
 H          0.4633624049       -0.5011177604        1.5919068899
 H         -1.3112443554       -1.5373019980        0.1521544480
 H         -1.9237288883       -0.4609047593        1.4068133118
 H         -3.1415437861       -0.0433421699       -0.6696265689
 H         -1.6447615984        0.2319461069       -1.5543187312
 H         -2.1483996582        1.3670570695       -0.3002559930
  17
        -16.82760259
 C          1.8919598990        0.6602931747        0.3309142349
 C          1.1088951303       -0.1944580493       -0.6587212733
 C          0.0000221804       -1.0176236241       -0.0010148872
 C         -1.1089912271       -0.1959415593        0.6582921254
 C         -1.8918913689        0.6610070807       -0.3295640943
 H          2.7288483289        1.1440596219       -0.1682405035
 H          2.2838005916        0.0450760273        1.1383912646
 H          1.2637134864        1.4352291971        0.7622996882
 H          0.6842012185        0.4438029562       -1.4350858179
 H          1.7986117015       -0.8863380996       -1.1489957004
 H          0.4494839343       -1.6647751969        0.7567858513
 H         -0.4493498222       -1.6633711716       -0.7600616674
 H         -1.7987746920       -0.8889387018        1.1469014322
 H         -0.6844542599        0.4405909570        1.4361648013
 H         -1.2636204986        1.4370143651       -0.7589912811
 H         -2.7289528484        1.1435098752        0.1705125316
 H         -2.2834429542        0.0476054741       -1.1385616725
  17
        -16.82558903
 C          1.6617202571        0.7759628460       -0.4910738246
 C          1.3630478191       -0.5492982463        0.1988062345
 C         -0.0299976916       -0.6209238209        0.8273687276
 C         -1.1831130867       -0.5521414501       -0.1843203625
 C         -1.8021377553        0.8370634199       -0.2988487209
 H          2.6946054621        0.7970843526       -0.8329504255
 H          1.5125323092        1.6059960227        0.1963635984
 H          1.0185545980        0.9187590348       -1.3553207756
 H          1.4718139936       -1.3632591725       -0.5222727584
 H          2.1029336424       -0.7099567343        0.9873769865
 H         -0.1375948615        0.1874427234        1.5536631653
 H         -0.0941314086       -1.5622805445        1.3783005546
 H         -0.8257668864       -0.8747433002       -1.1644726205
 H         -1.9681928984       -1.2493480886        0.1175716539
 H         -2.2199728713        1.1442569232        0.6578166654
 H         -2.6040644520        0.8343267930       -1.0347034233
 H         -1.0641596535        1.5746783608       -0.6002394749
  17
        -16.82548550
 C          2.3815466466        0.3419485058        0.3648433241
 C          1.3085464908       -0.5252028259       -0.2840202066
 C         -0.0200600475        0.2271597639       -0.4727268362
 C         -1.1795946283       -0.4294768978        0.2742496586
 C         -2.4830135261        0.3366284989        0.0848771421
 H          3.3020831829       -0.2229036673        0.4963948568
 H          2.0513160664        0.6902300490        1.3412000202
 H          2.5985422345        1.2095958475       -0.2547616349
 H          1.6770119173       -0.8808814725       -1.2479370356
 H          1.1416307453       -1.4048484974        0.3411487164
 H         -0.2729148483        0.2817577497       -1.5334426522
 H          0.0888585789        1.2532041891       -0.1150722340
 H         -1.3065511895       -1.4533996647       -0.0854802710
 H         -0.9399120745       -0.4783976876        1.3390789311
 H         -3.2947566736       -0.1474362071        0.6232029164
 H         -2.7491859318        0.3813904849       -0.9691762553
 H         -2.3846038997        1.3549350653        0.4554424806
  17
        -16.82507089
 C          1.8055167584        0.6695917432        0.5275997076
 C          1.3851830978       -0.5578779628       -0.2721243711
 C         -0.0344690792       -0.4368606158       -0.8284645950
 C         -1.1232842449       -0.5042219773        0.2561443673
 C         -2.0188049411        0.7295221764        0.2627232384
 H          2.8160937193        0.5466515997        0.9110425750
 H          1.1392603404        0.8327752297        1.3711315155
 H          1.7834687921        1.5570418390       -0.1017615213
 H          2.0806223191       -0.6914807153       -1.1044944571
 H          1.4518745410       -1.4478060219        0.3581973025
 H         -0.1916386935       -1.2355701375       -1.5559634151
 H         -0.1151564083        0.5095196133       -1.3671503228
 H         -1.7438270727       -1.3893207899        0.1032306804
 H         -0.6580692888       -0.6077053655        1.2379064028
 H         -1.4310302505        1.6272467170        0.4413664269
 H         -2.7720129376        0.6517106387        1.0441668259
 H         -2.5281083772        0.8367954626       -0.6927120241
  17
        -16.82497897
 C          2.3516044858       -0.2715346760        0.0630484922
 C          1.0053852057        0.2931285018        0.5032812807
 C          0.0162870116        0.4224767724       -0.6676906134
 C         -1.2218396486       -0.4623376396       -0.5152455005
 C         -2.1646208182        0.0357565708        0.5738668453
 H          2.8200244386        0.3821215515       -0.6699635268
 H          2.2243538688       -1.2548623907       -0.3848831548
 H          3.0233206529       -0.3672262498        0.9136642058
 H          0.5862539221       -0.3643170228        1.2668634890
 H          1.1663103827        1.2673504817        0.9684063873
 H          0.5256891209        0.1502589355       -1.5943782390
 H         -0.3090404699        1.4593667896       -0.7720981635
 H         -1.7616093359       -0.4835999185       -1.4651698921
 H         -0.9092360954       -1.4847931235       -0.2910357847
 H         -1.6643389215        0.0669096747        1.5387672656
 H         -3.0294918181       -0.6185892591        0.6586572164
 H         -2.5151267195        1.0389603124        0.3404906488
