  14
  -18.8163857300000       0.242938962147147      !md4
 C          2.0168302304        0.7731625864       -0.0000646350
 C          0.7848728830       -0.1000978858       -0.0000949316
 O          0.8388686169       -1.3072649970        0.0003141690
 C         -0.4979181729        0.6450914059       -0.0005348247
 C         -1.6654814029        0.0308712162       -0.7412996085
 C         -1.6652372961        0.0320549251        0.7416211283
 H          2.0123370594        1.4104993924       -0.8821056935
 H          2.0113901856        1.4120463640        0.8807503316
 H          2.9125116845        0.1581219715        0.0008804059
 H         -0.4119730257        1.7234578427       -0.0012795549
 H         -2.3286877017        0.6978386400       -1.2704742861
 H         -1.4730710759       -0.9052514668       -1.2430402948
 H         -2.3282498683        0.6998766969        1.2699383172
 H         -1.4726312784       -0.9032302630        1.2447871121
  14
  -18.8163857200000       0.242936391392971      !mtd12
 C          2.0168237902        0.7731841446       -0.0000892069
 C          0.7848863111       -0.1001136289       -0.0000538695
 O          0.8388465037       -1.3072912863        0.0002557382
 C         -0.4979381346        0.6451136618       -0.0004968971
 C         -1.6653974000        0.0308147397       -0.7413207948
 C         -1.6652879114        0.0321036646        0.7416511620
 H          2.0116341365        1.4114252068        0.8812590446
 H          2.9125894433        0.1582429155        0.0001112427
 H          2.0118703580        1.4111542342       -0.8816499610
 H         -0.4119258591        1.7234836433       -0.0013390362
 H         -2.3286459592        0.6976081287       -1.2706236447
 H         -1.4726857065       -0.9053246508       -1.2428632914
 H         -2.3283462857        0.7000463122        1.2697603237
 H         -1.4727563919       -0.9031016133        1.2449752678
  14
  -18.8163857100000       0.242933820665998      !mtd11
 C          2.0167714530        0.7731756052        0.0002447901
 C          0.7848759561       -0.1001249207       -0.0002446653
 O          0.8388621232       -1.3072916849        0.0002050507
 C         -0.4979397681        0.6450837646       -0.0008736741
 C         -1.6656323408        0.0307564901       -0.7412337679
 C         -1.6650244765        0.0321902948        0.7417419174
 H          2.9124902138        0.1582672298        0.0006011276
 H          2.0121338699        1.4113985578       -0.8810606360
 H          2.0113044938        1.4111445782        0.8817718817
 H         -0.4119885628        1.7234495539       -0.0020662336
 H         -2.3288651033        0.6977829221       -1.2703239113
 H         -1.4732003559       -0.9052888436       -1.2430501177
 H         -2.3278804634        0.7000291284        1.2702321896
 H         -1.4720813009       -0.9029882240        1.2449951424
  14
  -18.8149309700000       5.211176294701891E-002 !md3
 C          2.0339367951        0.7612487950        0.0003720794
 C          0.7810247966       -0.0849893088       -0.0003063976
 O          0.8305900813       -1.2936806592        0.0001174615
 C         -0.5057511680        0.6517124585       -0.0009645903
 C         -1.6677622621        0.0236967803       -0.7407318444
 C         -1.6671273474        0.0253533989        0.7413356281
 H          2.6269691372        0.5099560018        0.8777794802
 H          2.6296192885        0.5077537875       -0.8745297214
 H          1.8184114149        1.8246616020       -0.0012952892
 H         -0.4367028894        1.7308178130       -0.0024273260
 H         -2.3372899802        0.6839021902       -1.2704443847
 H         -1.4639551867       -0.9100807774       -1.2423279730
 H         -2.3363012196        0.6864731482        1.2703489539
 H         -1.4626617131       -0.9073783907        1.2445486379
  14
  -18.8145948500000       3.651452948601544E-002 !mtd14
 C          1.4367631194        0.9298488228       -0.3065122732
 C          0.7672530915       -0.3704019321        0.0667529405
 O          1.4027698582       -1.3823132561        0.2539182083
 C         -0.7083443455       -0.3647341429        0.2270090373
 C         -1.4845239945        0.8826251595        0.5680311771
 C         -1.6137403193        0.2930969211       -0.7900426601
 H          0.8971297936        1.4541109408       -1.0893773267
 H          1.4752763415        1.5679981964        0.5751720439
 H          2.4546054557        0.7295306441       -0.6303699381
 H         -1.0666111820       -1.2978627066        0.6468332204
 H         -2.3069823033        0.7767512462        1.2588197327
 H         -0.9416263543        1.8078009185        0.6791953195
 H         -2.5225257122       -0.2288606806       -1.0476208090
 H         -1.1589636005        0.8020901143       -1.6257262191
  14
  -18.8145948300000       3.651375670453150E-002 !mtd10
 C          1.4368035100        0.9298892599       -0.3063405009
 C          0.7672980907       -0.3703975375        0.0666976203
 O          1.4027595319       -1.3823512013        0.2537881937
 C         -0.7083281834       -0.3647585809        0.2268315208
 C         -1.4845369571        0.8824955932        0.5681861114
 C         -1.6137983976        0.2932366982       -0.7900079896
 H          1.4732497039        1.5689608069        0.5747586325
 H          2.4553401424        0.7298566660       -0.6282096941
 H          0.8982603422        1.4530576659       -1.0906834507
 H         -1.0665405284       -1.2980127290        0.6464272264
 H         -2.3068988930        0.7766505980        1.2590609008
 H         -0.9415319445        1.8076116360        0.6793209577
 H         -2.5225590645       -0.2287848805       -1.0475711836
 H         -1.1592169934        0.8024565418       -1.6256453135
  14
  -18.8145948200000       3.651337031985401E-002 !mtd6
 C          1.4367698998        0.9295595479        0.3077042376
 C          0.7673343760       -0.3703094625       -0.0669901939
 O          1.4028192966       -1.3820724602       -0.2550329909
 C         -0.7082670279       -0.3645226608       -0.2273122723
 C         -1.6139303272        0.2924623234        0.7899987671
 C         -1.4845048256        0.8830200894       -0.5676048125
 H          2.4555525511        0.7292617093        0.6285668115
 H          1.4724338614        1.5701373010       -0.5723266073
 H          0.8985946734        1.4512614468        1.0933012569
 H         -1.0664240774       -1.2974179479       -0.6477700213
 H         -2.5227089146       -0.2298610049        1.0469201606
 H         -1.1595260420        0.8009282425        1.6261847738
 H         -2.3067744854        0.7777975621       -1.2586893481
 H         -0.9415648879        1.8083101558       -0.6777384028
  14
  -18.8145948100000       3.651298393926520E-002 !md8
 C          1.4366947021        0.9290208944        0.3097292141
 C          0.7672991671       -0.3701579419       -0.0675054634
 O          1.4028407764       -1.3816830697       -0.2566655768
 C         -0.7081761774       -0.3638972943       -0.2288985651
 C         -1.6142610841        0.2903094210        0.7899351940
 C         -1.4841858204        0.8846172445       -0.5659715912
 H          0.8973968805        1.4502410790        1.0949998802
 H          2.4549843263        0.7278848713        0.6320098563
 H          1.4741425550        1.5702913255       -0.5697918871
 H         -1.0661809803       -1.2955374911       -0.6522250444
 H         -2.5232054966       -0.2326186273        1.0449715193
 H         -1.1601450032        0.7963788122        1.6277520241
 H         -2.3061760635        0.7812254014       -1.2576788919
 H         -0.9412014173        1.8101546748       -0.6734657799
  14
  -18.8145948100000       3.651298393926520E-002 !mtd5
 C          1.4367062057        0.9298001146        0.3067259759
 C          0.7673005867       -0.3704170750       -0.0667466911
 O          1.4028589284       -1.3822529866       -0.2542453248
 C         -0.7083522460       -0.3648533382       -0.2266644145
 C         -1.6136245667        0.2935844986        0.7901127544
 C         -1.4846961199        0.8822350168       -0.5683634569
 H          1.4738327128        1.5689613994       -0.5742365089
 H          0.8978595657        1.4529139938        1.0909283296
 H          2.4548674435        0.7295982279        0.6293159981
 H         -1.0666407329       -1.2982190078       -0.6459258983
 H         -2.5222908591       -0.2282247772        1.0483791640
 H         -1.1587201154        0.8033306513        1.6253160457
 H         -2.3072449886        0.7758731651       -1.2589548446
 H         -0.9418963135        1.8073885238       -0.6801591939
  14
  -18.8145947700000       3.651143845793316E-002 !mtd8
 C          1.4367354075        0.9292943087       -0.3087154029
 C          0.7673271764       -0.3701688768        0.0673515284
 O          1.4026849084       -1.3819306107        0.2557248197
 C         -0.7081520551       -0.3639544927        0.2286582158
 C         -1.4842571754        0.8843648220        0.5662944985
 C         -1.6141326028        0.2906361011       -0.7899779799
 H          2.4540305854        0.7280889398       -0.6342194718
 H          0.8957615524        1.4529688617       -1.0912132686
 H          1.4771203610        1.5683950360        0.5723247852
 H         -1.0661699600       -1.2959061629        0.6513474797
 H         -2.3063336391        0.7804133238        1.2578077168
 H         -0.9413797943        1.8099227221        0.6743493781
 H         -2.5229605216       -0.2323241442       -1.0453491735
 H         -1.1597666288        0.7970597149       -1.6274065273
