! pbe def2-sv(p) def2/J RI DEFGRID1 loosescf d4 GCP(DFT/SV(P)) printgap
%output
    printlevel normal
end
* xyz 0 1
C 2.1687956497 -1.2780527879 -0.2682436889
C 1.6450223881 0.1458859303 -0.4060932386
C 0.3421704485 0.3835287665 0.3719791886
H 0.4808712873 0.0254919406 1.3986647636
C -0.8621580242 -0.3723588434 -0.2640094823
C -1.4230913131 -1.399698818 0.7184316659
C -1.9752042257 0.5734825193 -0.7150129078
O 0.1163924495 1.7717498642 0.5394383708
H 2.3523669039 -1.5133256904 0.7774108629
H 3.1021670062 -1.3867149378 -0.8145069471
H 1.4561360145 -1.9980036078 -0.6617343597
H 2.393916693 0.8414299425 -0.0194746504
H 1.4800361508 0.3799476235 -1.4611587985
H -0.5002817376 -0.9071681838 -1.1481324408
H -1.8172024332 -0.8993065682 1.6002355468
H -2.227306747 -1.9673477495 0.2558125844
H -0.6480331593 -2.0948405745 1.032055971
H -2.8232821072 -0.0057427108 -1.0715558589
H -1.6423003417 1.2167544318 -1.526202975
H -2.3032501975 1.1956238136 0.1143995865
H 0.0934448178 2.1931143321 -0.330279284
*
