! r2scan-3c def2/J RI DEFGRID2 scfconv6 printgap
%output
    printlevel normal
end
* xyz 0 1
C -2.1425195934 -0.1185871882 0.740115217
C -1.5524150673 -0.1337574685 -0.6651906092
C -0.246160992 0.6543832111 -0.7389641513
C 0.8867688964 -0.0250716686 -0.0185135779
O 0.9555441145 -1.208576801 0.2343974958
O 1.8523075004 0.8255594241 0.3041869148
H -1.4537516911 -0.5835410404 1.4422597365
H -3.0780437431 -0.670832354 0.763882331
H -2.3344575976 0.9014914057 1.0648470979
H -1.3575318462 -1.165205077 -0.9643399804
H -2.2665470908 0.2992632071 -1.3660970892
H 0.0712366515 0.7591864355 -1.7794540885
H -0.360742718 1.6568162286 -0.325339099
H 2.605505447 0.3906133303 0.7484777755
*
