  14
  -17.7119756900000       5.895585284535682E-002 !mtd4
 C          2.1946491797        0.4524851501        0.1345831394
 C          1.2221429069       -0.6184980785       -0.3438162324
 C         -0.1247084312       -0.5485171733        0.3646892196
 H          0.0182960805       -0.5134488088        1.4482498022
 C         -1.0459725123       -1.6944033349       -0.0151428553
 Cl        -0.9379838264        0.9987877805       -0.0562863372
 H          3.1391901284        0.3682462143       -0.3967823539
 H          2.3871091635        0.3456545200        1.2000515900
 H          1.7854738062        1.4435257209       -0.0437935633
 H          1.6471566398       -1.6076386254       -0.1549565672
 H          1.0649493253       -0.5194667445       -1.4196954501
 H         -1.2041950700       -1.7132810801       -1.0910442991
 H         -0.6003374430       -2.6391154494        0.2901848530
 H         -2.0105371070       -1.5900374863        0.4755712959
  14
  -17.7119756800000       5.895522898081249E-002 !mtd2
 C          2.1945397748        0.4525041082        0.1345535101
 C          1.2221028979       -0.6185152704       -0.3438092828
 C         -0.1246925557       -0.5484267027        0.3648122209
 H          0.0183508647       -0.5134808073        1.4483967503
 C         -1.0459292939       -1.6942780644       -0.0152163624
 Cl        -0.9379482277        0.9987110483       -0.0562905747
 H          2.3865182427        0.3459895452        1.2001490963
 H          1.7856770016        1.4435934938       -0.0443322365
 H          3.1392167385        0.3677608700       -0.3964851940
 H          1.6470133544       -1.6076644143       -0.1549030405
 H          1.0649519224       -0.5195670245       -1.4196982586
 H         -2.0101412355       -1.5904984639        0.4763014882
 H         -1.2049022596       -1.7125822950       -1.0910224665
 H         -0.5997549638       -2.6390055807        0.2892086790
  14
  -17.7119756600000       5.895398127175041E-002 !mtd6
 C          2.1949939599        0.4522265208        0.1347421553
 C          1.2221837999       -0.6183001168       -0.3439567520
 C         -0.1246256822       -0.5484194385        0.3646314399
 H          0.0184547731       -0.5132281248        1.4481747345
 C         -1.0458161256       -1.6943957488       -0.0150072305
 Cl        -0.9382574119        0.9987847675       -0.0563299002
 H          1.7864435385        1.4433621772       -0.0444375476
 H          3.1398955045        0.3672457178       -0.3960095317
 H          2.3865756178        0.3457835483        1.2004629520
 H          1.6470969306       -1.6075050169       -0.1554073201
 H          1.0650359309       -0.5190171356       -1.4197901009
 H         -0.5992600741       -2.6390247262        0.2889955856
 H         -2.0097799989       -1.5909931243        0.4770355990
 H         -1.2051790548       -1.7126111978       -1.0908548151
  14
  -17.7119756400000       5.895273358887280E-002 !md3
 C          2.1943241676        0.4527919956        0.1342264984
 C          1.2221521806       -0.6188449119       -0.3434354929
 C         -0.1246975082       -0.5486791895        0.3649793468
 H          0.0180622206       -0.5136986859        1.4486007231
 C         -1.0460544009       -1.6942228175       -0.0154921568
 Cl        -0.9378166427        0.9987890444       -0.0562293199
 H          3.1389892594        0.3679122947       -0.3968208970
 H          2.3864789936        0.3472403679        1.1998946923
 H          1.7851931070        1.4435519132       -0.0454789149
 H          1.6473021853       -1.6078138598       -0.1537556550
 H          1.0650545646       -0.5207402117       -1.4194624051
 H         -2.0104411321       -1.5904105182        0.4756666955
 H         -1.2045400804       -1.7123285231       -1.0913727014
 H         -0.6002660034       -2.6390629190        0.2889261720
  14
  -17.7119756400000       5.895273358887280E-002 !mtd2
 C          2.1951368771        0.4519058357        0.1350680276
 C          1.2221048163       -0.6180722028       -0.3443208847
 C         -0.1245803222       -0.5482118712        0.3645643520
 H          0.0186832992       -0.5129890803        1.4480981748
 C         -1.0455807517       -1.6944473104       -0.0147639592
 Cl        -0.9384005467        0.9987702280       -0.0563933021
 H          1.7871594737        1.4432688394       -0.0441811839
 H          3.1401875387        0.3664855273       -0.3951950605
 H          2.3861666604        0.3451445940        1.2008554678
 H          1.6467974170       -1.6075961930       -0.1567136987
 H          1.0647743494       -0.5177772168       -1.4200755184
 H         -2.0098281416       -1.5907316558        0.4766759380
 H         -1.2046007827       -1.7131284636       -1.0905233192
 H         -0.5991292153       -2.6389063614        0.2898153153
  14
  -17.7119756100000       5.895086211428826E-002 !mtd10
 C          2.1945366407        0.4523810837        0.1345662142
 C          1.2222057944       -0.6186419871       -0.3438360390
 C         -0.1245806415       -0.5483692316        0.3647200214
 H          0.0182998003       -0.5134690163        1.4483360453
 C         -1.0457601529       -1.6942577823       -0.0152067045
 Cl        -0.9380932720        0.9987803760       -0.0562779095
 H          1.7855645748        1.4432958568       -0.0439371372
 H          3.1390724182        0.3679736071       -0.3966166176
 H          2.3867327360        0.3457476606        1.2000310292
 H          1.6472941807       -1.6076732126       -0.1547818560
 H          1.0650337495       -0.5199486404       -1.4197253001
 H         -1.2055233082       -1.7121598507       -1.0908908604
 H         -0.5993928453       -2.6389334391        0.2889430425
 H         -2.0095878380       -1.5906766970        0.4769620635
  14
  -17.7119756000000       5.895023830255532E-002 !mtd8
 C          2.1945635014        0.4526041952        0.1342743792
 C          1.2221819798       -0.6186896750       -0.3435036554
 C         -0.1247303409       -0.5484749850        0.3650253442
 H          0.0180066860       -0.5135257913        1.4486311567
 C         -1.0459093292       -1.6941993260       -0.0154763971
 Cl        -0.9379809594        0.9987201177       -0.0562499012
 H          2.3880804426        0.3454786512        1.1996628642
 H          1.7846982713        1.4435709776       -0.0434577184
 H          3.1386368876        0.3687671931       -0.3981781456
 H          1.6473234779       -1.6076475774       -0.1539987291
 H          1.0651080243       -0.5203721913       -1.4194625159
 H         -1.2036430934       -1.7126416194       -1.0915085681
 H         -0.6004430206       -2.6390334213        0.2897889746
 H         -2.0106994576       -1.5898472219        0.4749500856
  14
  -17.7119756000000       5.895023830255532E-002 !md4
 C          2.1950972608        0.4524357034        0.1345571272
 C          1.2224244739       -0.6184819710       -0.3437331788
 C         -0.1245269045       -0.5484748981        0.3644994704
 H          0.0182825581       -0.5134918289        1.4480557828
 C         -1.0459735489       -1.6941600736       -0.0151193923
 Cl        -0.9383529636        0.9986800737       -0.0562607292
 H          2.3866714818        0.3464301988        1.2003253753
 H          1.7863313904        1.4435218486       -0.0448813183
 H          3.1400399136        0.3675783287       -0.3961015012
 H          1.6474509248       -1.6075292935       -0.1547650641
 H          1.0654527521       -0.5196020755       -1.4195966131
 H         -0.6002588256       -2.6386943207        0.2903791415
 H         -2.0104716977       -1.5896904655        0.4757133753
 H         -1.2042545161       -1.7133009273       -1.0909427782
  14
  -17.7119755700000       5.894836690718450E-002 !md2
 C          2.1948643588        0.4520917157        0.1349489752
 C          1.2220488627       -0.6182239807       -0.3442038475
 C         -0.1245417010       -0.5484297993        0.3647299963
 H          0.0186576195       -0.5130973899        1.4482461064
 C         -1.0456992375       -1.6944086901       -0.0148898899
 Cl        -0.9382225072        0.9988064647       -0.0564010809
 H          3.1405334380        0.3657224740       -0.3941271613
 H          2.3846388514        0.3465700452        1.2010584690
 H          1.7874732762        1.4433475265       -0.0458758539
 H          1.6468249762       -1.6076880601       -0.1564985214
 H          1.0646969592       -0.5180568346       -1.4199307122
 H         -0.5997374845       -2.6389945236        0.2905243219
 H         -2.0102374142       -1.5901281602        0.4759256545
 H         -1.2040360969       -1.7134493221       -1.0907418146
  14
  -17.7114393200000       3.342168496760531E-002 !md3
 C          2.4733206395       -0.5120944306        0.2036974298
 C          1.2459997291        0.2136816263       -0.3383334422
 C         -0.0334417991       -0.1895773153        0.3860016615
 H          0.0670358372       -0.0095542593        1.4599952376
 C         -0.4616906803       -1.6218260308        0.1253923100
 Cl        -1.3550068651        0.9055995011       -0.1570805647
 H          3.3698332714       -0.1282040960       -0.2762882094
 H          2.4168605538       -1.5798096285        0.0103447446
 H          2.5661725214       -0.3581966127        1.2765090394
 H          1.1343076886        0.0067026574       -1.4045190808
 H          1.3883249619        1.2899343806       -0.2206896818
 H         -1.4203238451       -1.8229418560        0.5973767305
 H         -0.5563909901       -1.8014423759       -0.9431297799
 H          0.2745189758       -2.3086792299        0.5359575180
  14
  -17.7114393000000       3.342097764193916E-002 !md4
 C          2.4732136304       -0.5122863210        0.2035686828
 C          1.2459030546        0.2137549584       -0.3381734946
 C         -0.0334762424       -0.1896123867        0.3861402103
 H          0.0668926886       -0.0095584173        1.4601423912
 C         -0.4614791499       -1.6218603680        0.1252918839
 Cl        -1.3550021166        0.9056724647       -0.1570977537
 H          3.3697504305       -0.1278413269       -0.2758473245
 H          2.4170227470       -1.5798421590        0.0094099910
 H          2.5659459599       -0.3591438156        1.2764622092
 H          1.1340543337        0.0071876696       -1.4044427113
 H          1.3882576922        1.2899471649       -0.2201087492
 H         -0.5568137994       -1.8011727930       -0.9432127925
 H          0.2751220939       -2.3087078298        0.5351077989
 H         -1.4197432567       -1.8233860438        0.5978242132
  14
  -17.7114393000000       3.342097764193916E-002 !mtd14
 C          2.4732643029       -0.5123464016        0.2035736207
 C          1.2460625150        0.2138934617       -0.3381694588
 C         -0.0334700481       -0.1894896588        0.3859574706
 H          0.0669605425       -0.0094866578        1.4599548470
 C         -0.4615499696       -1.6217916826        0.1253613812
 Cl        -1.3550610513        0.9055667769       -0.1570677796
 H          2.5657033777       -0.3592828608        1.2765123629
 H          3.3698786989       -0.1277243989       -0.2756217007
 H          2.4171072416       -1.5799212980        0.0092636683
 H          1.1342526858        0.0071940509       -1.4043935783
 H          1.3885321340        1.2901032375       -0.2202719084
 H         -1.4199175927       -1.8231946198        0.5977912178
 H         -0.5567204631       -1.8011726997       -0.9431740789
 H          0.2750313099       -2.3085303183        0.5354624111
  14
  -17.7114392800000       3.342027033136828E-002 !mtd5
 C          2.4733010500       -0.5122400385        0.2037210498
 C          1.2460434810        0.2136865210       -0.3383685392
 C         -0.0333836339       -0.1894182378        0.3859846470
 H          0.0671862916       -0.0092368571        1.4599523599
 C         -0.4615189689       -1.6217037634        0.1253964597
 Cl        -1.3551259104        0.9055507440       -0.1570741219
 H          3.3699658544       -0.1278989239       -0.2753920595
 H          2.4171674498       -1.5798022337        0.0097245513
 H          2.5656161616       -0.3589959877        1.2766903327
 H          1.1342817913        0.0065171354       -1.4045517668
 H          1.3884613975        1.2899729529       -0.2210705167
 H          0.2752077395       -2.3083617447        0.5352720541
 H         -1.4196284880       -1.8232806149        0.5980129674
 H         -0.5567591391       -1.8010655997       -0.9430179531
  14
  -17.7114392700000       3.341991668163351E-002 !md8
 C          2.4733612742       -0.5120843926        0.2039503604
 C          1.2461345650        0.2134807310       -0.3386366771
 C         -0.0333022369       -0.1895423158        0.3857505316
 H          0.0674358330       -0.0093966527        1.4597574056
 C         -0.4616557846       -1.6218055120        0.1255965301
 Cl        -1.3551574006        0.9056669361       -0.1570696946
 H          2.4171295750       -1.5798106973        0.0105862875
 H          2.5657126677       -0.3580547333        1.2767774941
 H          3.3700729704       -0.1280479098       -0.2754929535
 H          1.1345662264        0.0058180328       -1.4046612462
 H          1.3883767282        1.2897420454       -0.2216507298
 H         -1.4197560172       -1.8232623349        0.5984108261
 H         -0.5571771241       -1.8014870197       -0.9428038297
 H          0.2751031686       -2.3084509702        0.5354093902
  14
  -17.7114392600000       3.341956303564103E-002 !mtd5
 C          2.4735594866       -0.5119128143        0.2037506414
 C          1.2459569995        0.2134483607       -0.3384061710
 C         -0.0334433535       -0.1896598299        0.3860723819
 H          0.0671044895       -0.0094710621        1.4600370465
 C         -0.4617067342       -1.6218265520        0.1253653364
 Cl        -1.3550871856        0.9056408033       -0.1570875938
 H          2.5662130644       -0.3578774313        1.2765547676
 H          3.3699576338       -0.1275235387       -0.2761723525
 H          2.4174761977       -1.5796940927        0.0104040975
 H          1.1344287729        0.0061208308       -1.4045124585
 H          1.3879885825        1.2896657082       -0.2209713167
 H          0.2749814241       -2.3087522818        0.5351785806
 H         -1.4199604565       -1.8231034676        0.5981688188
 H         -0.5571527207       -1.8014034730       -0.9431721579
  14
  -17.7114392400000       3.341885575500841E-002 !mtd6
 C          2.4731445838       -0.5122858151        0.2035065146
 C          1.2459158372        0.2138230252       -0.3381094249
 C         -0.0336354316       -0.1895116359        0.3860699088
 H          0.0667106937       -0.0096790011        1.4601049777
 C         -0.4614749246       -1.6218275739        0.1252852832
 Cl        -1.3549401837        0.9056089356       -0.1570561223
 H          2.5665100464       -0.3585665291        1.2763173748
 H          3.3696419702       -0.1284541132       -0.2766215510
 H          2.4164236624       -1.5799595628        0.0099697664
 H          1.1340063764        0.0072938863       -1.4043087644
 H          1.3883088113        1.2900122773       -0.2201503042
 H         -0.5549539912       -1.8015875295       -0.9432319243
 H          0.2747007309       -2.3083445784        0.5362278514
 H         -1.4205207338       -1.8234063619        0.5964569815
  14
  -17.7114392400000       3.341885575500841E-002 !md4
 C          2.4731089286       -0.5131721937        0.2028544578
 C          1.2460993150        0.2146513212       -0.3372555327
 C         -0.0335392242       -0.1893047249        0.3863273716
 H          0.0662722796       -0.0097242369        1.4605050482
 C         -0.4610135031       -1.6216198320        0.1249117874
 Cl        -1.3552131809        0.9054801799       -0.1570725134
 H          2.4158549216       -1.5804681187        0.0074427663
 H          2.5665569336       -0.3614763827        1.2759075872
 H          3.3697309524       -0.1289121531       -0.2765356391
 H          1.1340122516        0.0101798660       -1.4038991185
 H          1.3891006772        1.2905523417       -0.2171904208
 H          0.2745072621       -2.3082688674        0.5369751817
 H         -1.4205270297       -1.8230150568        0.5949207493
 H         -0.5534847391       -1.8012791022       -0.9438076790
  14
  -17.7114390800000       3.341319804828987E-002 !mtd14
 C          2.4734628541       -0.5121780779        0.2035643719
 C          1.2461618238        0.2138057866       -0.3381510624
 C         -0.0333487991       -0.1895760432        0.3860069186
 H          0.0669176956       -0.0097144683        1.4599997771
 C         -0.4617313173       -1.6217537589        0.1253216117
 Cl        -1.3551281502        0.9055456384       -0.1570742480
 H          2.4162850310       -1.5799530998        0.0113318514
 H          2.5671317462       -0.3571664644        1.2760801077
 H          3.3697618084       -0.1290910926       -0.2772792066
 H          1.1344358586        0.0069767028       -1.4043560057
 H          1.3885862134        1.2899798065       -0.2203698279
 H         -0.5523516500       -1.8025410929       -0.9432993454
 H          0.2721341683       -2.3086965636        0.5397569026
 H         -1.4225460939       -1.8214493212        0.5936621637
  14
  -17.7108926200000       1.874055364750597E-002 !mtd7
 C          1.9766258504        0.0059413446       -0.6515431040
 C          1.2681017947       -0.3465071536        0.6510938382
 C         -0.2399722910       -0.5328423484        0.5078681961
 H         -0.6685515098       -0.7652415553        1.4873390428
 C         -0.6441700159       -1.5932555268       -0.5005110393
 Cl        -0.9901658332        1.0312779433        0.0327032025
 H          1.5124585421        0.8757122407       -1.1094208731
 H          1.9409607749       -0.8218042061       -1.3547628307
 H          3.0199894365        0.2378252619       -0.4529526902
 H          1.4491032735        0.4440039526        1.3825041148
 H          1.6803884432       -1.2748051931        1.0550981745
 H         -0.3388554410       -1.3093426302       -1.5036156039
 H         -0.1738514568       -2.5396538189       -0.2408245388
 H         -1.7232009609       -1.7271379591       -0.4960241026
  14
  -17.7108926100000       1.874035533696686E-002 !md6
 C          1.9766655922        0.0057662850       -0.6515507512
 C          1.2680229243       -0.3464345598        0.6511051660
 C         -0.2400603124       -0.5327889154        0.5078760827
 H         -0.6686432654       -0.7652546291        1.4873349466
 C         -0.6439493775       -1.5932821638       -0.5005067948
 Cl        -0.9902100635        1.0313067949        0.0326938793
 H          1.9418432989       -0.8224389721       -1.3542505879
 H          3.0198064905        0.2386960469       -0.4528531551
 H          1.5118370353        0.8748882504       -1.1100326632
 H          1.4489206936        0.4442762865        1.3823269885
 H          1.6803118986       -1.2746297443        1.0553609371
 H         -1.7229439172       -1.7273397656       -0.4958248478
 H         -0.3388206704       -1.3090905366       -1.5036490901
 H         -0.1734287435       -2.5396639560       -0.2409323176
  14
  -17.7108925900000       1.873995872225457E-002 !mtd12
 C          1.9768503015        0.0059288293       -0.6514648167
 C          1.2680354104       -0.3464931317        0.6510092773
 C         -0.2400422587       -0.5329082214        0.5079120257
 H         -0.6686923551       -0.7652799402        1.4873566265
 C         -0.6441144820       -1.5933050577       -0.5004647178
 Cl        -0.9902344399        1.0313112493        0.0326726356
 H          3.0203709553        0.2371252365       -0.4529282888
 H          1.5131327743        0.8760715633       -1.1090007584
 H          1.9405859995       -0.8215953812       -1.3548476747
 H          1.4490060912        0.4440800476        1.3823198912
 H          1.6803755382       -1.2747018034        1.0551030322
 H         -0.3378315212       -1.3096187334       -1.5033517135
 H         -0.1745187549       -2.5400293744       -0.2403728249
 H         -1.7232860291       -1.7263097654       -0.4968619593
  14
  -17.7108925700000       1.873956211586564E-002 !md6
 C          1.9769105281        0.0062806630       -0.6513921929
 C          1.2681205516       -0.3468534413        0.6508897113
 C         -0.2399755656       -0.5328735058        0.5077716513
 H         -0.6684806077       -0.7653557375        1.4872415312
 C         -0.6443500326       -1.5933642933       -0.5004549879
 Cl        -0.9902051547        1.0313363012        0.0327243782
 H          1.5129506233        0.8765613854       -1.1086860485
 H          1.9409756608       -0.8208005368       -1.3553172041
 H          3.0203179335        0.2376652465       -0.4524345570
 H          1.4493999932        0.4430473005        1.3827774737
 H          1.6801837357       -1.2755195833        1.0541182370
 H         -1.7236179194       -1.7258462441       -0.4965942436
 H         -0.3378898660       -1.3102249218       -1.5033330022
 H         -0.1754470421       -2.5402730543       -0.2400596336
  14
  -17.7108925700000       1.873956211586564E-002 !mtd1
 C          1.9766256775        0.0067477569       -0.6514128255
 C          1.2682571350       -0.3473871463        0.6508429211
 C         -0.2399275771       -0.5329676736        0.5077428422
 H         -0.6684844218       -0.7653278769        1.4872231962
 C         -0.6445969023       -1.5932371588       -0.5005290361
 Cl        -0.9900600044        1.0313311311        0.0328010371
 H          3.0200919840        0.2384442099       -0.4525352161
 H          1.5122086098        0.8768518239       -1.1083692881
 H          1.9411419592       -0.8201921837       -1.3555065355
 H          1.4495444224        0.4422074954        1.3831330782
 H          1.6805225033       -1.2762543547        1.0535738124
 H         -0.1751070715       -2.5399678560       -0.2406528821
 H         -1.7237047941       -1.7262628204       -0.4962642749
 H         -0.3387894426       -1.3096617920       -1.5035566181
  14
  -17.7108925400000       1.873896722209074E-002 !md6
 C          1.9768182597        0.0054536784       -0.6515759640
 C          1.2682510590       -0.3462306919        0.6512052774
 C         -0.2398199563       -0.5326554489        0.5077233560
 H         -0.6684625058       -0.7652031183        1.4871227620
 C         -0.6438916899       -1.5932653031       -0.5004622002
 Cl        -0.9904894225        1.0312950354        0.0327023913
 H          1.9427602916       -0.8232645071       -1.3536801154
 H          3.0197387796        0.2392814329       -0.4528566179
 H          1.5114731475        0.8739042013       -1.1107970707
 H          1.4490234964        0.4449103705        1.3820361848
 H          1.6807469335       -1.2740760868        1.0559523467
 H         -0.3367526452       -1.3103018172       -1.5032849163
 H         -0.1748709238       -2.5399234554       -0.2395562162
 H         -1.7230369761       -1.7259660007       -0.4973595203
  14
  -17.7108925400000       1.873896722209074E-002 !mtd6
 C          1.9768843617        0.0058684017       -0.6514954559
 C          1.2682044743       -0.3465894364        0.6510399436
 C         -0.2399045974       -0.5327807656        0.5078721323
 H         -0.6685296400       -0.7652740122        1.4872748423
 C         -0.6440159770       -1.5931321796       -0.5005030960
 Cl        -0.9904064005        1.0312640027        0.0327022029
 H          1.5111812135        0.8743298219       -1.1105884788
 H          1.9431778241       -0.8227465054       -1.3538935070
 H          3.0198248481        0.2399688089       -0.4523996615
 H          1.4491807462        0.4438882861        1.3825039323
 H          1.6805128460       -1.2749673112        1.0549453782
 H         -0.1738796239       -2.5396017198       -0.2408232476
 H         -1.7231203170       -1.7266935405       -0.4961913660
 H         -0.3383914248       -1.3092113538       -1.5035191647
  14
  -17.7108925300000       1.873876892833902E-002 !mtd1
 C          1.9767144925        0.0066057074       -0.6513945664
 C          1.2680224191       -0.3470131018        0.6508643694
 C         -0.2400897406       -0.5331151703        0.5078890954
 H         -0.6686617004       -0.7653947605        1.4873939156
 C         -0.6445830715       -1.5933703923       -0.5004815274
 Cl        -0.9899460036        1.0313327857        0.0327238090
 H          3.0204448216        0.2371439877       -0.4530890509
 H          1.5132745943        0.8775217343       -1.1075262565
 H          1.9396497165       -0.8197133724       -1.3560877576
 H          1.4492365078        0.4426893038        1.3830665563
 H          1.6803359630       -1.2757421561        1.0537593747
 H         -1.7236565085       -1.7269832368       -0.4958956305
 H         -0.3393758162       -1.3091920028       -1.5035641680
 H         -0.1743274828       -2.5399702803       -0.2410774254
  14
  -17.7108925300000       1.873876892833902E-002 !md6
 C          1.9772232385        0.0056892176       -0.6514718318
 C          1.2682818479       -0.3462358004        0.6510662121
 C         -0.2398514671       -0.5327339086        0.5078787407
 H         -0.6684631655       -0.7651374543        1.4873176817
 C         -0.6440900314       -1.5931456172       -0.5004471895
 Cl        -0.9905819064        1.0311841898        0.0326601510
 H          1.9398097444       -0.8216334401       -1.3551074923
 H          3.0211172631        0.2355843754       -0.4531412789
 H          1.5143708050        0.8765214084       -1.1087148781
 H          1.4492682771        0.4446457954        1.3820987804
 H          1.6807422213       -1.2743138160        1.0554606930
 H         -0.1733810425       -2.5394783980       -0.2409845429
 H         -1.7231151499       -1.7272715872       -0.4959284076
 H         -0.3389300911       -1.3088941539       -1.5035521944
