  14
        -17.71197569
 C          2.1946491797        0.4524851501        0.1345831394
 C          1.2221429069       -0.6184980785       -0.3438162324
 C         -0.1247084312       -0.5485171733        0.3646892196
 H          0.0182960805       -0.5134488088        1.4482498022
 C         -1.0459725123       -1.6944033349       -0.0151428553
 Cl        -0.9379838264        0.9987877805       -0.0562863372
 H          3.1391901284        0.3682462143       -0.3967823539
 H          2.3871091635        0.3456545200        1.2000515900
 H          1.7854738062        1.4435257209       -0.0437935633
 H          1.6471566398       -1.6076386254       -0.1549565672
 H          1.0649493253       -0.5194667445       -1.4196954501
 H         -1.2041950700       -1.7132810801       -1.0910442991
 H         -0.6003374430       -2.6391154494        0.2901848530
 H         -2.0105371070       -1.5900374863        0.4755712959
