! pbe def2-sv(p) def2/J RI DEFGRID1 loosescf d4 GCP(DFT/SV(P)) printgap
%output
    printlevel normal
end
* xyz 0 1
C -2.1254882321 -0.5394327381 0.9202304908
C -2.0749173593 0.5837477345 -0.1090994647
C -0.8420546371 0.4910003118 -1.0042885996
O 0.347740155 0.7741668806 -0.253962698
C 1.2116427479 -0.2029702691 -0.0055994272
O 1.0811260323 -1.3415148906 -0.4056411642
C 2.3614626519 0.2886223561 0.8233095591
H -1.2620940875 -0.494740523 1.5813314209
H -3.0242708825 -0.4580821984 1.5249618053
H -2.1226040564 -1.5093514186 0.4272438063
H -2.0649376133 1.5498397496 0.3973034957
H -2.9552250969 0.5372465366 -0.7499964374
H -0.7499720749 -0.5073689874 -1.4430530911
H -0.8800858941 1.2441885814 -1.7941558803
H 3.1160805798 -0.487234193 0.896839195
H 1.997281932 0.5453851647 1.8149745955
H 2.7741029849 1.1862174644 0.3723963668
*
