  28
        -32.51957488
 C          3.0757619869        1.8665705735        0.2221611517
 C          1.9070625092        1.0254385829       -0.2745593331
 C          2.2423355254       -0.4642197773       -0.2699708156
 C          1.0690633340       -1.3083562034       -0.7660496205
 C         -0.0622636321       -1.3748493801        0.2401023414
 O          0.1213026345       -1.3332310236        1.4304320466
 C         -1.4431546085       -1.5038153350       -0.3660521634
 C         -1.9713600185       -0.1200182279       -0.7725813930
 C         -2.2702333741        0.7608617382        0.4380410929
 C         -2.7061366190        2.1592122720        0.0191330725
 H          2.8198166729        2.9235101118        0.2100482935
 H          3.9497865937        1.7173833781       -0.4087105842
 H          3.3366838653        1.5879680386        1.2404345200
 H          1.6424407591        1.3357438754       -1.2893296489
 H          1.0396772201        1.1985207135        0.3654102194
 H          3.1142535037       -0.6421965936       -0.9031983271
 H          2.4890540959       -0.7747915714        0.7467714710
 H          1.3990049996       -2.3411226468       -0.9165473343
 H          0.7014845051       -0.9362407378       -1.7234145080
 H         -2.1182357657       -1.9423210677        0.3705545569
 H         -1.3967409251       -2.1497441160       -1.2443362481
 H         -2.8849678293       -0.2506007018       -1.3573110245
 H         -1.2379225733        0.3786151891       -1.4107470359
 H         -3.0584187082        0.2965139861        1.0343746152
 H         -1.3818244804        0.8289616591        1.0681253206
 H         -3.5986707622        2.1120522385       -0.6016244124
 H         -2.9275692316        2.7672538181        0.8926860111
 H         -1.9195241671        2.6508441234       -0.5497400554
