! r2scan-3c def2/J RI DEFGRID2 scfconv6 printgap
%output
    printlevel normal
end
* xyz 0 1
C -2.7393444516 -0.3351921901 0.0041049637
C -1.3280213858 -0.0277338609 0.488179444
C -0.3066580184 -0.1620505 -0.6526763189
C 1.0666479468 0.1828399439 -0.1340257682
O 1.4801297001 1.3268089235 -0.1201842623
C 1.8674962172 -0.9728079402 0.384365586
H -3.4464497921 -0.2368573833 0.8235424735
H -2.7971171037 -1.3495756297 -0.3826418645
H -3.0305024486 0.3521982569 -0.7862148316
H -1.0632925712 -0.7116828045 1.2966752068
H -1.2843475338 0.9896169396 0.8830504235
H -0.3238265671 -1.1800781506 -1.0390058611
H -0.573995518 0.5384128381 -1.4453111851
H 1.2518876456 -1.5966957956 1.0261387115
H 2.7431719013 -0.6208004337 0.9224339617
H 2.1876117113 -1.5764237577 -0.4627685681
*
