! r2scan-3c def2/J RI DEFGRID2 scfconv6 printgap
%output
    printlevel normal
end
* xyz 0 1
C -1.9171526171 0.2553773885 -0.6075540011
C -1.1055577205 0.2426812061 0.6823436828
C 0.0675156858 -0.7385339735 0.5991037271
O 0.9941354953 -0.4551726079 -0.4343201084
C 1.8283329445 0.6573509327 -0.1900130071
H -2.7036588965 1.003706288 -0.5577105656
H -1.270439312 0.4812321652 -1.4523622236
H -2.3711898159 -0.7176790854 -0.7784663496
H -1.735411602 -0.0598682672 1.5197560711
H -0.7294684965 1.2455073128 0.8924434126
H 0.5941662054 -0.773603682 1.564220417
H -0.3047785134 -1.7384823176 0.3627069909
H 2.5611712196 0.6638914337 -0.9935354845
H 2.3388585273 0.5559033349 0.774164571
H 1.2682929907 1.5969746063 -0.2030715912
*
