! r2scan-3c def2/J RI DEFGRID2 scfconv6 printgap
%output
    printlevel normal
end
* xyz 0 1
C -1.4119911819 1.5895593558 0.0178100755
C -1.3850811416 0.0879410505 -0.2480659623
C -0.119981852 -0.6180144319 0.2564084299
H -0.0255163046 -0.4514222058 1.3356541477
C -0.240411129 -2.1208193182 0.0046929507
C 1.1609966534 -0.0729702436 -0.4010954512
O 1.8018619894 0.9393778236 0.3479177562
H -1.2435890816 1.7946433935 1.0728565993
H -0.6599741073 2.1070759527 -0.5731681982
H -2.3826678011 1.9971035517 -0.2552192217
H -1.4835793301 -0.0910234411 -1.321471745
H -2.2469866429 -0.3703434178 0.241700193
H -1.1441425887 -2.5110329853 0.4660336371
H 0.6135429957 -2.6494665027 0.4204315075
H -0.2847547085 -2.3210752826 -1.063538302
H 0.9441888692 0.2849406322 -1.4168603002
H 1.9072705603 -0.8676501096 -0.4756942813
H 1.1950902266 1.6839045856 0.4586468248
*
