  15
        -16.90237613
 C         -2.1414774139       -0.7884441385        0.3756367388
 C         -1.2330946596       -0.2025303240       -0.6884918836
 S          0.0001645187        0.9560041627        0.0004139414
 C          1.2323269638       -0.2039571322        0.6881883737
 C          2.1418694594       -0.7877252027       -0.3762174161
 H         -1.5746558058       -1.3776944521        1.0937339890
 H         -2.6530447472        0.0073719279        0.9116661330
 H         -2.8854401911       -1.4352937980       -0.0857616068
 H         -1.8042476962        0.3938858212       -1.3988188607
 H         -0.6947554822       -0.9783283384       -1.2317655663
 H          1.8028627812        0.3906792542        1.4005438099
 H          0.6933768168       -0.9809666845        1.2291585103
 H          2.8842740711       -1.4367305370        0.0846421259
 H          1.5756041328       -1.3742247808       -1.0970041180
 H          2.6552695643        0.0090784877       -0.9090246270
