! r2scan-3c def2/J RI DEFGRID2 scfconv6 printgap
%output
    printlevel normal
end
* xyz 0 1
C 2.5310143268 1.5660190533 0.4099013838
C 2.1280118198 0.2797825143 -0.3112239129
C 3.3779671359 -0.5478852215 -0.6107962766
C 1.1340491014 -0.5443119221 0.5246438393
C -0.3261741772 -0.3113325972 0.2363535481
C -0.8258670204 0.888929549 -0.2527507396
C -2.1807836305 1.0504502841 -0.4903496119
C -3.0645260137 0.0161748951 -0.2399368826
C -2.5813023163 -1.1847492263 0.2520157202
C -1.227844195 -1.3429342972 0.4847232827
H 3.0967549259 1.3273706593 1.3086470649
H 1.6605611447 2.1469065483 0.7034598981
H 3.1562651118 2.1828785875 -0.2321415726
H 1.6566909403 0.5361840279 -1.266092358
H 4.0940805387 0.0395890678 -1.1809028519
H 3.8544052811 -0.8642430128 0.3148219872
H 3.1245652374 -1.432820161 -1.1901385654
H 1.3111967432 -0.3429409498 1.5857522799
H 1.3342884349 -1.6070108905 0.3694646963
H -0.1614676601 1.7130174962 -0.4587164151
H -2.5466127208 1.9919359218 -0.8737055104
H -4.1203038666 0.1432635269 -0.4273986244
H -3.2604941895 -2.0010353598 0.4504137074
H -0.8605612972 -2.2856085587 0.865786597
*
