! r2scan-3c def2/J RI DEFGRID2 scfconv6 printgap
%output
    printlevel normal
end
%cpcm
    smd true
    smdsolvent "water"
end
* xyz 0 1
C -2.9700668633 -0.0021990105 0.1899153312
C -1.6453454614 0.7460721732 0.2425288716
C -0.4823288365 -0.1260978485 -0.155623714
O -0.5658112235 -1.2533545338 -0.5956444802
O 0.6727615973 0.502216329 0.0339001116
C 1.8930754975 -0.1851288444 -0.2929250759
C 3.005253158 0.3675106265 0.5789069244
H -3.7866999636 0.6639460029 0.4500315382
H -3.1382067945 -0.398583568 -0.8081006709
H -2.9602816511 -0.8387136599 0.8838369475
H -1.4466218498 1.1316356714 1.2433095711
H -1.6563787206 1.5991348078 -0.4388883511
H 1.741170971 -1.2575551253 -0.1333357376
H 2.0985951409 -0.0158777442 -1.3545680284
H 3.9391854249 -0.1206784515 0.3207408452
H 3.1024142994 1.4372868872 0.4199163625
H 2.7854636792 0.1876120563 1.6273501885
*
