! pbe def2-sv(p) def2/J RI DEFGRID1 loosescf d4 GCP(DFT/SV(P)) printgap
%output
    printlevel normal
end
* xyz 0 1
C -1.4463179825 0.3665832581 -0.2206333573
C 0.0157479074 0.4226290708 0.2679229317
C 0.8434038667 -0.6500505012 -0.4543456054
O 2.0679350481 -0.9446707835 0.1706421054
O 0.591757341 1.6817062457 -0.0018022932
O -2.0766195145 -0.8527836262 0.0845064753
H -1.458303396 0.4531806902 -1.3095651599
H -2.0059717499 1.2113582238 0.2001031816
H 0.0445496279 0.2212131864 1.3514079702
H 1.0999680327 -0.2734009204 -1.4464702517
H 0.2286763001 -1.5528223126 -0.5586680244
H 1.9011923447 -1.3314888463 1.041936852
H 0.1436200933 2.3703144165 0.5095639831
H -2.2123171477 -0.9193103977 1.0407606647
*
