! r2scan-3c def2/J RI DEFGRID2 scfconv6 printgap
%output
    printlevel normal
end
%cpcm
    smd true
    smdsolvent "water"
end
* xyz 0 1
C 4.8909147586 -0.5679627265 -1.1834662098
C 4.5422997918 -0.3956797118 0.2974504043
C 3.2473789836 0.374253482 0.4458902104
O 3.2143762308 1.5549640756 0.7531853118
N 2.146236855 -0.3798432012 0.1772565038
C 0.8059641706 -0.0080811856 0.1670724899
C 0.3703725774 1.2845797553 0.4556083576
C -0.9771040506 1.5858802583 0.4280495439
C -1.9100765815 0.6101521104 0.114388346
C -1.4815483844 -0.6799219853 -0.1743506689
C -0.1351282784 -0.9896893783 -0.1492307679
Cl -2.6335936694 -1.913341018 -0.5684291805
Cl -3.6011136592 0.9997525311 0.0839025117
H 5.8426363703 -1.0826536104 -1.2793702023
H 4.9748748427 0.4042421309 -1.6632646826
H 4.1307308225 -1.1436763013 -1.704226194
H 5.3271852816 0.1759658866 0.7926480754
H 4.4563993843 -1.369485728 0.779280699
H 2.3144846169 -1.3497607883 -0.0596874578
H 1.0903383854 2.0471761754 0.7005881348
H -1.3130550577 2.5847767109 0.6510710753
H 0.1726673308 -1.9973177811 -0.3767018705
*
