  29
        -34.61323090
 C          2.6749067799        1.3460393454        0.3980404659
 C          1.8687083969        0.2160283532       -0.1761779596
 C          1.6689683476       -0.9017111326        0.5123034476
 C          0.8700590991       -2.0988968643        0.1006283270
 C         -0.5451067610       -2.0533101062        0.7149240140
 C         -1.3252636940       -0.9014036323        0.1455913568
 C         -1.3314442314        0.2728253049        0.7656085947
 C         -1.9791362878        1.5449411769        0.3094828924
 O         -1.0238358019        2.5665340383        0.0831972192
 C         -2.0394878354       -1.1819217359       -1.1430272429
 C          1.3428441829        0.4983223958       -1.5500048621
 H          2.1243449903        2.2818693435        0.3092433357
 H          2.9173483038        1.1735162556        1.4439118586
 H          3.6066887278        1.4615422769       -0.1562041925
 H          2.0854565654       -0.9714266162        1.5104596967
 H          0.7887689509       -2.1640074126       -0.9843919280
 H          1.3717694080       -3.0028381246        0.4550134137
 H         -1.0579139156       -2.9935334018        0.5017637699
 H         -0.4520705859       -1.9497719369        1.7974373931
 H         -0.7807029047        0.3740586929        1.6939573875
 H         -2.7054091021        1.8801079487        1.0686699363
 H         -2.5071999025        1.4234979810       -0.6361955835
 H         -0.4439611062        2.6072037364        0.8525441762
 H         -1.5506168496       -1.9936027125       -1.6769573728
 H         -2.0654517133       -0.3086994565       -1.7887298494
 H         -3.0670452102       -1.4864031239       -0.9409989126
 H          2.1413915878        0.8844139267       -2.1826734288
 H          0.9181010703       -0.3816831125       -2.0207216616
 H          0.5684820798        1.2626780534       -1.4887960179
