  15
        -18.19002297
 C         -2.9432689728        0.5002797799        0.0000394490
 C         -1.7756550323       -0.4791098966       -0.0026375267
 C         -0.4351665472        0.2521999266        0.0024672103
 C          0.7370800364       -0.7394434014        0.0015869234
 C          1.9957282684       -0.0518737177        0.0004186528
 N          2.9924832450        0.5137283346       -0.0018140489
 H         -3.8888939859       -0.0354991518       -0.0043840894
 H         -2.9099674120        1.1319438558        0.8848282352
 H         -2.9066647256        1.1407150316       -0.8782829811
 H         -1.8415198749       -1.1229517247        0.8769780257
 H         -1.8388832903       -1.1150180806       -0.8882142647
 H         -0.3688532872        0.8902487594        0.8864108033
 H         -0.3653506242        0.8957639726       -0.8772029246
 H          0.6944777843       -1.3764226732        0.8887236316
 H          0.6933166749       -1.3758129956       -0.8859870095
  15
        -18.18999059
 C         -2.6450183483        0.6687985020        0.0892245811
 C         -1.2759488727        0.1390891627        0.4987714381
 C         -0.5674342114       -0.5431148578       -0.6694363271
 C          0.8156627740       -1.0784562692       -0.2712513557
 C          1.7188326796       -0.0134609938        0.0609309589
 N          2.4425142076        0.8386853646        0.3130303545
 H         -3.2778512958       -0.1423920683       -0.2633846967
 H         -3.1358206414        1.1464510389        0.9330899224
 H         -2.5472192790        1.4005586803       -0.7094010833
 H         -0.6588303357        0.9643375071        0.8631215952
 H         -1.3942302838       -0.5733412238        1.3186763641
 H         -0.4583391865        0.1663154296       -1.4925619109
 H         -1.1722285284       -1.3799610180       -1.0224997486
 H          0.7300141146       -1.7372127580        0.5966366109
 H          1.2554236315       -1.6430789255       -1.0970046787
  15
        -18.18934888
 C         -2.5482011206        0.3187760114       -0.6183339908
 C         -1.8429375065       -0.4113295938        0.5196260058
 C         -0.4008050003        0.0500139121        0.7301815368
 C          0.5016854293       -0.3053501238       -0.4609131876
 C          1.8673111849        0.0364999409       -0.1880514597
 N          2.9544469720        0.3139511046        0.0461993646
 H         -2.4944018123        1.3952827879       -0.4713799728
 H         -2.1036063845        0.0771129392       -1.5801948501
 H         -3.5960080907        0.0312918019       -0.6529814849
 H         -2.3921975473       -0.2351002421        1.4465597186
 H         -1.8564257433       -1.4862646585        0.3276433941
 H         -0.0012564153       -0.4242682335        1.6293893785
 H         -0.3808819667        1.1304880373        0.8875067674
 H          0.4514374678       -1.3781392031       -0.6645963491
 H          0.1894048687        0.2373772265       -1.3555235343
  15
        -18.18918595
 C         -2.1683138467        0.6495366863        0.5713585472
 C         -1.3428005146        0.2970436804       -0.6618789775
 C         -0.5420573556       -0.9958592763       -0.5013941242
 C          0.5820057780       -0.8862858200        0.5399294375
 C          1.5613073425        0.0919643731        0.1618618008
 N          2.3474571414        0.8670367306       -0.1459666559
 H         -2.8110863404       -0.1825320336        0.8502169558
 H         -1.5314422850        0.8976219721        1.4168956464
 H         -2.7959782425        1.5127278666        0.3651011901
 H         -2.0155862819        0.1780882619       -1.5137398576
 H         -0.6604624324        1.1188625404       -0.8928210902
 H         -0.1043687484       -1.2649431217       -1.4650989506
 H         -1.2122161374       -1.8014328592       -0.1968026759
 H          0.1761157816       -0.6070650444        1.5143883133
 H          1.0920161012       -1.8475412189        0.6409620589
  15
        -18.18850980
 C         -1.5306446465        1.1389130391       -0.3655152420
 C         -1.7515387739       -0.3301348270       -0.0268424241
 C         -0.5943848128       -0.9513777995        0.7546357224
 C          0.6985866066       -1.0787822882       -0.0685734489
 C          1.4515409337        0.1412863972       -0.1305954620
 N          2.0895718573        1.0933205506       -0.1613098254
 H         -0.6581720887        1.2699661049       -1.0014881454
 H         -2.3955174484        1.5401581176       -0.8881225085
 H         -1.3772995672        1.7210325775        0.5407254351
 H         -2.6577873294       -0.4205994221        0.5757823087
 H         -1.9107409740       -0.8954116607       -0.9481072601
 H         -0.8876245665       -1.9539384310        1.0702691157
 H         -0.3984473168       -0.3600527589        1.6516046775
 H          1.3534225183       -1.8273213218        0.3856953301
 H          0.4671953632       -1.3964646964       -1.0883672493
