! r2scan-3c def2/J RI DEFGRID2 scfconv6 printgap
%output
    printlevel normal
end
* xyz 0 1
C 1.9586964535 -0.9520197406 -0.1049788945
C 1.8730100455 0.5690980608 -0.1555775537
C 0.5439035135 1.1302412238 0.3529682274
C -0.6584977399 0.7469828668 -0.5086167462
S -1.6808417123 -0.6031883956 0.1939901547
H 1.7468540261 -1.3125188391 0.8993187682
H 2.9580923812 -1.2794625516 -0.3813355808
H 1.2557188854 -1.406728717 -0.7989567942
H 2.0340680955 0.9075764945 -1.1816891543
H 2.6722081047 0.9888717449 0.4587465405
H 0.6200155284 2.2195314276 0.3713874245
H 0.3734272313 0.7983744701 1.3793585167
H -1.3654656428 1.5724541563 -0.5854167605
H -0.3609640154 0.448611133 -1.5126207362
H -0.7562540625 -1.5542510131 0.1395044793
*
