! pbe def2-sv(p) def2/J RI DEFGRID1 loosescf d4 GCP(DFT/SV(P)) printgap
%output
    printlevel normal
end
* xyz 0 1
C -4.15622297 -0.6812270116 1.4333084305
C -3.473662427 -0.1401549569 0.1920199205
O -2.0550698925 -0.194157561 0.3997805127
C -1.2780171847 0.2172689989 -0.6013209743
O -1.7357977091 0.6265365704 -1.6574439584
C 0.1576718485 0.1263241853 -0.3018829399
C 1.0734109255 0.5250368706 -1.2760255183
C 2.4280047417 0.4553703262 -1.0356545047
C 2.8942620207 -0.0171269255 0.1915252164
C 1.9791489572 -0.4168965322 1.1692664618
C 0.626974659 -0.3463035859 0.9259133862
O 4.205654793 -0.1070876542 0.4817629649
H -3.8491673591 -1.7080246653 1.6086950466
H -3.886246814 -0.0812225819 2.2972537814
H -5.2316894042 -0.6470024379 1.2944952355
H -3.7551937267 0.8996985975 -0.0068106364
H -3.7165765492 -0.7317680022 -0.6974097184
H 0.6946087952 0.8879289913 -2.2194969458
H 3.1265413432 0.7666658457 -1.797587736
H 2.3597931783 -0.7787241808 2.1106646989
H -0.0795999801 -0.6542936492 1.6791183714
H 4.7552700574 0.1924825921 -0.2601119276
*
