! r2scan-3c def2/J RI DEFGRID2 scfconv6 printgap
%output
    printlevel normal
end
* xyz 0 1
C -2.2800730203 0.3724984926 -1.0517198788
C -1.8257228086 0.3879853049 0.411134604
C -0.4464503987 -0.211198967 0.5020242675
O -0.2139560319 -1.387250056 0.6919627261
O 0.4941090675 0.7069143571 0.3237211155
C 1.8690126909 0.2884499981 0.3059072789
C 2.2973875054 -0.1206619801 -1.0950530334
H -1.6102448507 0.9737683632 -1.6609623531
H -2.283297034 -0.6456056955 -1.4339140227
H -3.2841661767 0.7784400561 -1.1277780907
H -2.5039208514 -0.2103635963 1.0182738164
H -1.7911722022 1.412193956 0.7789697414
H 2.426962304 1.1582110107 0.6539852522
H 1.9883047408 -0.5451840686 1.0046572425
H 3.3520559901 -0.3755760419 -1.0886235919
H 1.7266931971 -0.9876911972 -1.420471923
H 2.1297087892 0.6961985213 -1.7917480747
*
