  16
  -27.1772257000000       0.159668271161989      !hor
 C         -1.0595565354       -2.1762118751       -0.0000019380
 C         -0.1949908250       -0.9565106419        0.0000206846
 C          1.1860828032       -1.0556730429        0.0000158173
 C          1.9932556651        0.0777238200        0.0000035165
 C          1.4085307530        1.3377393583        0.0000090227
 C          0.0305126621        1.4558304071        0.0000080987
 C         -0.7571329216        0.3195280205       -0.0000000448
 Cl        -2.4812165503        0.4969037192       -0.0000072053
 O          3.3408780215       -0.0972796341       -0.0000193963
 H         -1.7030937749       -2.1809326745       -0.8787971072
 H         -0.4545713901       -3.0781571968        0.0007368589
 H         -1.7042221021       -2.1802107449        0.8779616693
 H          1.6632604108       -2.0229313108        0.0000170778
 H          2.0264810300        2.2250695033        0.0000097554
 H         -0.4311480060        2.4306990463        0.0000219104
 H          3.7836029945        0.7599795816       -0.0000461158
  16
  -27.1772256800000       0.159664891994650      !mtd8
 C         -1.0595844738       -2.1761999358       -0.0000515607
 C         -0.1949578549       -0.9565016749        0.0000352727
 C          1.1860951302       -1.0557254004        0.0001710354
 C          1.9932098895        0.0777367191        0.0001094321
 C          1.4085170712        1.3377141189        0.0000462227
 C          0.0304866226        1.4558339171        0.0000113512
 C         -0.7571461018        0.3195304542       -0.0000016790
 Cl        -2.4811842757        0.4969061539       -0.0000336863
 O          3.3408727283       -0.0972641769       -0.0001792745
 H         -1.7037690866       -2.1805148644        0.8782728328
 H         -1.7035986129       -2.1805209308       -0.8785027377
 H         -0.4546101282       -3.0781771212       -0.0000015584
 H          1.6632609152       -2.0229832153        0.0001166965
 H          2.0264623277        2.2250501260       -0.0000364103
 H         -0.4310801484        2.4307544528        0.0000556186
 H          3.7835617148        0.7600277756        0.0003120005
  16
  -27.1772256600000       0.159661512899426      !mtd3
 C         -1.0595776970       -2.1762083244       -0.0000358457
 C         -0.1949809189       -0.9565139684       -0.0002111562
 C          1.1860932864       -1.0556838682       -0.0000513389
 C          1.9932588480        0.0777389882        0.0000208772
 C          1.4085128951        1.3377219158       -0.0000049894
 C          0.0305061132        1.4558222059       -0.0002101504
 C         -0.7571357607        0.3195276508       -0.0003253667
 Cl        -2.4812145966        0.4969079095        0.0002261207
 O          3.3408909231       -0.0972781157        0.0000064892
 H         -0.4546648377       -3.0782040633        0.0001142155
 H         -1.7036637186       -2.1803697961        0.8784080731
 H         -1.7037308061       -2.1806940601       -0.8783777935
 H          1.6633204175       -2.0229191574       -0.0000809016
 H          2.0265358321        2.2250433372        0.0003132127
 H         -0.4310445028        2.4307458505        0.0002313929
 H          3.7835792153        0.7599981680        0.0010826003
  16
  -27.1770874500000       0.137937808548410      !hor
 C         -1.0776007131       -2.1666276815        0.0000029952
 C         -0.2042874217       -0.9528248081       -0.0000010208
 C          1.1789257046       -1.0609806535       -0.0000001699
 C          1.9943280914        0.0643363627       -0.0000000270
 C          1.4188156186        1.3308192326       -0.0000001538
 C          0.0444048927        1.4571665070       -0.0000031100
 C         -0.7543975696        0.3259239778       -0.0000061618
 Cl        -2.4770519926        0.5163500977        0.0000046701
 O          3.3498221212       -0.0280376927       -0.0000040973
 H         -1.7218741254       -2.1657598790        0.8782018218
 H         -1.7217946224       -2.1658187092       -0.8782545890
 H         -0.4816572784       -3.0750890896        0.0000591013
 H          1.6298364884       -2.0451371218       -0.0000012552
 H          2.0589470677        2.1975037493       -0.0000005168
 H         -0.4110701444        2.4347878439        0.0000029162
 H          3.6170688512       -0.9551717213       -0.0000155677
  16
  -27.1770874500000       0.137937808548410      !hor
 C         -1.0775902479       -2.1666460711        0.0000347571
 C         -0.2042919908       -0.9528357698        0.0000347280
 C          1.1789241883       -1.0609918343        0.0000258495
 C          1.9943069884        0.0643009569       -0.0000149557
 C          1.4188107345        1.3308164138        0.0000302371
 C          0.0444085426        1.4571645045        0.0000646516
 C         -0.7543899097        0.3259123722        0.0000177868
 Cl        -2.4770403499        0.5163727655       -0.0000467121
 O          3.3498014417       -0.0280119283       -0.0000234501
 H         -1.7216118087       -2.1659333631       -0.8783391175
 H         -0.4816211858       -3.0750997337        0.0002632077
 H         -1.7220195033       -2.1656985065        0.8781169180
 H          1.6298334356       -2.0451530911        0.0000260635
 H          2.0589781434        2.1974714147        0.0000430696
 H         -0.4111517493        2.4347531065        0.0000207541
 H          3.6170903492       -0.9551303847       -0.0004161461
  16
  -27.1770874200000       0.137933429665749      !gc
 C         -1.0776183649       -2.1666221139       -0.0000049545
 C         -0.2042887684       -0.9528351270       -0.0000288456
 C          1.1789296574       -1.0609869207        0.0000446919
 C          1.9943142926        0.0643088967        0.0000052511
 C          1.4188149509        1.3308210554        0.0000020034
 C          0.0444091896        1.4571639854       -0.0000012629
 C         -0.7543844751        0.3259117387       -0.0000249352
 Cl        -2.4770399600        0.5163533374        0.0000093422
 O          3.3498106975       -0.0280058496       -0.0000317220
 H         -0.4816784539       -3.0750834629       -0.0038069084
 H         -1.7190869297       -2.1677111308        0.8802741874
 H         -1.7246301275       -2.1638537416       -0.8761718172
 H          1.6298430176       -2.0451466273        0.0001258840
 H          2.0589784617        2.1974790765       -0.0000472407
 H         -0.4111576386        2.4347463155       -0.0000815119
 H          3.6170904371       -0.9551219978       -0.0000216978
  16
  -27.1762347600000       5.595180871057280E-002 !mtd8
 C         -1.0259695572       -2.2126413709       -0.0005457005
 C         -0.2037868444       -0.9615511113        0.0005599537
 C          1.1804996995       -1.0577788375        0.0003504410
 C          1.9902185134        0.0709851016        0.0000472197
 C          1.4057791198        1.3322956410       -0.0002538938
 C          0.0292868122        1.4482426835       -0.0000512393
 C         -0.7645706415        0.3131841535        0.0001965779
 Cl        -2.4861328069        0.5295322650        0.0000629775
 O          3.3376894237       -0.1050917356       -0.0000659159
 H         -0.8111437994       -2.7984986106       -0.8930294461
 H         -0.7789580669       -2.8220498068        0.8672312654
 H         -2.0873785536       -1.9862664134        0.0213458355
 H          1.6521265464       -2.0279639632        0.0005709546
 H          2.0234947394        2.2198365607       -0.0002416845
 H         -0.4319927461        2.4233956092       -0.0002284355
 H          3.7810361147        0.7518423936       -0.0004324616
  16
  -27.1761517100000       5.124446847079373E-002 !md4
 C         -1.0435335723       -2.2036774925       -0.0001504688
 C         -0.2131517170       -0.9576813574        0.0004256368
 C          1.1733109040       -1.0630533679        0.0003295416
 C          1.9911669197        0.0575785469        0.0000494346
 C          1.4159986239        1.3254104286        0.0000689672
 C          0.0430691903        1.4496031154        0.0002035520
 C         -0.7620098709        0.3196825223        0.0001911168
 Cl        -2.4818031029        0.5492537294       -0.0002087661
 O          3.3464322033       -0.0362127539       -0.0002415899
 H         -0.8086827994       -2.8107702216        0.8729586884
 H         -2.1029155884       -1.9682869101        0.0134628277
 H         -0.8287084171       -2.7959601683       -0.8886124453
 H          1.6187669955       -2.0498157280        0.0004268683
 H          2.0558534724        2.1922654978       -0.0001003945
 H         -0.4121598915        2.4274743190        0.0001948622
 H          3.6126799650       -0.9636193257       -0.0004724648
