! r2scan-3c def2/J RI DEFGRID2 scfconv6 printgap
%output
    printlevel normal
end
%cpcm
    smd true
    smdsolvent "water"
end
* xyz 0 1
C 1.8152362258 -1.3421119823 -0.1437279162
C 0.8160997453 -0.2440436043 0.2157922681
C 1.5497498339 1.0718648875 0.4694090333
C -0.2522839209 -0.0861685791 -0.8851382017
C -1.6761499279 -0.2518561501 -0.350658852
O -2.022698184 0.7009962996 0.632982559
H 2.5458853656 -1.4659126651 0.6522270837
H 2.3452511638 -1.0860207805 -1.0587997284
H 1.3061065369 -2.2916259358 -0.2910571381
H 0.3087864073 -0.5290792079 1.1439326744
H 0.85143262 1.8442803165 0.7811274891
H 2.061129804 1.4028350418 -0.4323539822
H 2.2900042265 0.9468701683 1.2563118996
H -0.1048551345 -0.8363270883 -1.6626978146
H -0.1609172743 0.8958898986 -1.3532917517
H -2.3923263007 -0.2104091736 -1.1832231735
H -1.7806321001 -1.2220405388 0.1416350788
H -2.006094424 1.5808488402 0.2323828619
*
