  20
        -28.91182031
 C         -2.9090036982       -0.3697136774        0.0043928509
 C         -2.6705430480        1.0133879237        0.0012193454
 C         -1.3922314891        1.4959478841       -0.0023570122
 C         -0.2871268450        0.6176287454       -0.0023749753
 C          1.0382639798        1.0854237379       -0.0105595953
 C          2.1034883189        0.2119316511       -0.0107686574
 C          1.8516841772       -1.1793243243       -0.0074821954
 C          0.5754094020       -1.6574499197       -0.0021630618
 C         -0.5309983788       -0.7816405359        0.0004119915
 C         -1.8602473907       -1.2470030463        0.0036838799
 N          3.4058121492        0.6644517698        0.0562982021
 H         -3.9264241741       -0.7330894552        0.0073939285
 H         -3.5094808467        1.6946413437        0.0016524707
 H         -1.2075145239        2.5612099103       -0.0045126081
 H          1.2177500789        2.1519354362       -0.0139975109
 H          2.6937838149       -1.8576024209       -0.0085056464
 H          0.3942798064       -2.7231521517       -0.0020546132
 H         -2.0360721371       -2.3139067337        0.0061601705
 H          4.1201537140        0.0245855871       -0.2506091245
 H          3.5595714831        1.6238744253       -0.2080907124
