! pbe def2-sv(p) def2/J RI DEFGRID1 loosescf d4 GCP(DFT/SV(P)) printgap
%output
    printlevel normal
end
* xyz 0 1
C -1.109929855 -0.0551858013 0.7156314662
C 0.2340899541 0.5992385068 0.3342700054
C 1.1320881205 -0.3695864998 -0.4572903612
O 1.6651251029 -1.4034072082 0.3347215462
O 0.0343001322 1.797090239 -0.3869771952
O -1.8364510728 -0.5127586248 -0.4046206227
H -1.697646267 0.6609027886 1.2992577688
H -0.9178008518 -0.9317006872 1.3371421784
H 0.7463594117 0.8905473468 1.2568225874
H 1.9910723232 0.1870468459 -0.8409120717
H 0.5623634899 -0.7795599152 -1.3016026768
H 0.9649734798 -2.0327376253 0.5542735838
H -0.253112912 1.5795874961 -1.2856860199
H -2.2746311693 0.2370843232 -0.8287554487
*
