  22
        -26.19111658
 C         -4.1356815487       -0.2397885372        0.0304777913
 C         -2.8089328298        0.4983329936       -0.0992893708
 C         -1.6170139390       -0.4426274966        0.0583021058
 C         -0.2875632906        0.2952424393       -0.0670535911
 C          0.9048332701       -0.6452722032        0.0823289004
 C          2.2319335606        0.0812367722        0.0252220166
 O          2.3293700202        1.2803908811        0.0620214336
 C          3.4316752780       -0.8296344938       -0.0889471992
 H         -4.2144449188       -0.7150079037        1.0060212161
 H         -4.9697488997        0.4484941614       -0.0837399871
 H         -4.2203017340       -1.0107396435       -0.7326007738
 H         -2.7521359720        1.2804027880        0.6608795377
 H         -2.7572938387        0.9837502738       -1.0763388009
 H         -1.6729416355       -1.2239443909       -0.7042652920
 H         -1.6714489764       -0.9303010534        1.0350335181
 H         -0.2309887531        0.7898476231       -1.0388179187
 H         -0.2217153117        1.0723370827        0.6963895857
 H          0.8891067055       -1.4159125000       -0.6917959429
 H          0.8549663088       -1.1569908902        1.0481630723
 H          3.3329002140       -1.6872411887        0.5709346063
 H          3.4953080923       -1.1938862383       -1.1131494350
 H          4.3416949009       -0.2822328049        0.1413687565
