! pbe def2-sv(p) def2/J RI DEFGRID1 loosescf d4 GCP(DFT/SV(P)) printgap
%output
    printlevel normal
end
* xyz 0 1
C 5.5011341868 -0.6416112567 -0.1254323378
C 4.4618148473 0.4668736984 -0.0138496021
C 3.0491080985 -0.0826672879 -0.0480297033
O 2.7928897991 -1.2695296964 -0.1560368474
N 2.1061544264 0.8984487934 0.0554734465
C 0.7194412926 0.7906098301 0.0634666867
C -0.0324671587 1.9619886335 0.1832747193
C -1.4108253388 1.9143590301 0.1972141267
C -2.0660878098 0.696444567 0.0918214848
C -1.3235049704 -0.4710247767 -0.0276024657
C 0.0592773513 -0.4315174485 -0.0423795726
Cl -2.1241621776 -2.0034624158 -0.1605113548
Cl -3.7987002505 0.6365872717 0.1095015446
H 5.371679159 -1.1875370369 -1.056635664
H 5.3867057845 -1.3492319044 0.6919617316
H 6.5038050905 -0.2256053897 -0.0955654419
H 4.5784425659 1.1705418555 -0.8400344964
H 4.5980210588 1.0116024495 0.9221048711
H 2.4508169834 1.8469631447 0.1396769078
H 0.4631205278 2.9157682104 0.2661020237
H -1.9908132471 2.8172811697 0.2896064194
H 0.622332235 -1.3449186079 -0.1355679086
*
