! pbe def2-sv(p) def2/J RI DEFGRID1 loosescf d4 GCP(DFT/SV(P)) printgap
%output
    printlevel normal
end
* xyz 0 1
C -1.2010101224 0.1565499522 -0.4923676696
C -0.047196793 0.4828375246 0.4798474402
C 0.9927960255 -0.6481255679 0.5747894954
O 1.762719811 -0.8410437284 -0.5839285475
O 0.6337044227 1.6552182737 0.0904295244
O -2.119540865 -0.7673446423 0.0398550349
H -0.8073080986 -0.1865710303 -1.4572711752
H -1.7789309983 1.0668029259 -0.6724616098
H -0.4835884769 0.6018423533 1.483986707
H 0.4817687457 -1.5784170166 0.8606180829
H 1.7119171953 -0.3917524662 1.3551705868
H 1.1847075219 -0.9342174345 -1.3535899115
H 0.0413043201 2.4169949013 0.1490789979
H -1.7014341652 -1.633905993 0.1352578756
*
