! r2scan-3c def2/J RI DEFGRID2 scfconv6 printgap
%output
    printlevel normal
end
* xyz 0 1
C 1.8851515306 1.1033278097 0.1266905847
C 1.3794267649 -0.2380551599 -0.3962449112
H 2.0218108715 -0.5396022118 -1.2424922649
C -0.0618405313 -0.1737472677 -0.9347623133
C -1.1168972595 0.4497279035 -0.0124696882
C -2.4260119985 0.6224958401 -0.7834764941
C -1.35515198 -0.3957295946 1.2362515285
O 1.5461522172 -1.1847144255 0.6480383064
H 1.3701096943 1.3618430733 1.0469108133
H 2.9473269938 1.0291222767 0.3437093738
H 1.7235431372 1.8795674397 -0.6144620769
H -0.027781275 0.4044786765 -1.8606911743
H -0.3794113467 -1.1878670108 -1.1933742057
H -0.7724137814 1.4410873691 0.2954674015
H -3.1838461993 1.0703106074 -0.1452132007
H -2.7948388826 -0.3414604011 -1.1279290682
H -2.283056171 1.2651226671 -1.6491456963
H -1.7539575673 -1.3704383083 0.961888656
H -0.4286539121 -0.5425497835 1.7841914809
H -2.0718431765 0.0936129123 1.8921700555
H 1.2923254942 -2.0595688165 0.3266259918
*
