! r2scan-3c def2/J RI DEFGRID2 scfconv6 printgap
%output
    printlevel normal
end
* xyz 0 1
C -3.4393845755 0.8198756823 -0.230016775
C -2.041504211 0.4652721716 0.2693825454
C -2.0989052125 -0.7492063513 1.1920539045
C -1.1107600699 0.2039891027 -0.930449676
C 0.3067746734 0.0305361954 -0.4920501183
C 0.8941233934 -1.2275813943 -0.3374415893
N 2.138542486 -1.3814906308 0.0847928349
C 2.822804664 -0.277270124 0.3582143714
C 2.2541552305 0.978168092 0.199866078
N 1.0074502558 1.1299827753 -0.2205591822
H -4.1002287396 1.0177651148 0.6100733557
H -3.8547479828 -0.0026626449 -0.8077845327
H -3.4100327087 1.7051754318 -0.8598856652
H -1.6370465749 1.3158585076 0.8278297721
H -1.1104946272 -0.9953428904 1.5751876952
H -2.7511404292 -0.5485704546 2.0383690893
H -2.4866257166 -1.6139295856 0.6577978386
H -1.1619250683 1.0627821864 -1.6002251248
H -1.4456745569 -0.6880988201 -1.4609497751
H 0.3523513691 -2.1361527784 -0.5604248626
H 3.8367680462 -0.4130656508 0.704139214
H 2.8009593175 1.8862931479 0.4103590188
*
