  13
        -18.61882862
 C         -1.7877930259       -0.5833358998        0.3116789983
 O         -0.9997515506        0.1470900671       -0.6062632661
 C         -0.0000042672        0.9064323574       -0.0000225047
 O          0.9997715523        0.1471476702        0.6062497201
 C          1.7877773548       -0.5833724062       -0.3116378666
 H         -2.4900300489       -1.1642163525       -0.2818532587
 H         -2.3348147533        0.0954014960        0.9760996107
 H         -1.1701708107       -1.2524419669        0.9177942689
 H          0.4115485889        1.5367135556       -0.8033477730
 H         -0.4115726186        1.5368219177        0.8032155468
 H          2.3344897892        0.0953351286       -0.9762864980
 H          1.1701809376       -1.2527202670       -0.9174900292
 H          2.4902890106       -1.1639507929        0.2818611874
