! r2scan-3c def2/J RI DEFGRID2 scfconv6 printgap
%output
    printlevel normal
end
%cpcm
    smd true
    smdsolvent "water"
end
* xyz 0 1
C 2.8321562816 -0.346461665 0.13096855
C 1.4320456676 -0.5052185427 -0.4513389773
C 0.4068607524 0.3073892597 0.3357260208
C -1.0003632911 0.275893594 -0.2761042758
H -0.9402662099 0.5615300675 -1.3329879914
C -1.6564280138 -1.0989212731 -0.1570934635
O -1.8192709228 1.2804363589 0.3039309077
H 3.1402764597 0.6962450408 0.1047952943
H 3.5498327717 -0.9315316398 -0.4385063434
H 2.8552452977 -0.684582591 1.164385701
H 1.4311975251 -0.1738565717 -1.4919533192
H 1.1568236927 -1.5606842162 -0.4362137657
H 0.3600243205 -0.0633350699 1.3629666444
H 0.7292499789 1.3512031385 0.3706831676
H -1.1249324209 -1.8250582988 -0.7633825184
H -1.6524789933 -1.4330626852 0.878422974
H -2.6852661528 -1.0425324457 -0.5044790186
H -1.9443917975 1.0741646753 1.2410363643
*
