! pbe def2-sv(p) def2/J RI DEFGRID1 loosescf d4 GCP(DFT/SV(P)) printgap
%output
    printlevel normal
end
* xyz 0 1
C -2.1781479604 1.0669130821 0.5690420244
C -2.0882527364 -0.2933006574 -0.1121342489
C -0.8217072046 -0.4139389408 -0.9652333156
C 0.4130074978 -0.4082190628 -0.1018889909
O 0.5954447374 -1.12660105 0.8587035634
O 1.3014959445 0.4827138758 -0.5282411026
C 2.5418684169 0.6007863145 0.174359068
H -2.1642968384 1.865875859 -0.168444085
H -3.0966511395 1.1423435364 1.1447610641
H -1.3378886896 1.2081364091 1.246359691
H -2.9586440094 -0.4416636173 -0.7515785922
H -2.0764927442 -1.0815735622 0.6428808326
H -0.7495930149 0.4039084106 -1.6811628678
H -0.8365048594 -1.3633536348 -1.5035201035
H 3.2745145106 0.930388688 -0.5565548723
H 2.8189242767 -0.3620578334 0.6052434608
H 2.436024952 1.3380840261 0.9702830308
*
