! r2scan-3c def2/J RI DEFGRID2 scfconv6 printgap
%output
    printlevel normal
end
%cpcm
    smd true
    smdsolvent "water"
end
* xyz 0 1
C 2.3327629141 -0.498080212 0.5607497005
C 1.4808428807 -0.1711232717 -0.6604211351
C 0.5693593984 1.0396308679 -0.4540662981
C -0.546863111 0.8030962161 0.5503241477
S -1.690993829 -0.5100142083 -0.0543825766
H 1.7154685731 -0.8098775377 1.3992318054
H 2.9150280235 0.3701304416 0.8618072792
H 3.0184748559 -1.3095459272 0.3303254293
H 0.8695471522 -1.0381312946 -0.9231425983
H 2.1383830086 0.0358195067 -1.507301224
H 0.1217529421 1.3134109346 -1.4128283302
H 1.1648457145 1.8870451756 -0.1057088726
H -0.1570208267 0.4776997721 1.5128499867
H -1.141264691 1.706726036 0.6767606526
H -2.5624493288 -0.3924557794 0.9387105755
*
