! pbe def2-sv(p) def2/J RI DEFGRID1 loosescf d4 GCP(DFT/SV(P)) printgap
%output
    printlevel normal
end
* xyz 0 1
C -2.2022462909 0.8850841109 0.7307586062
C -1.8076289679 0.3820674911 -0.6524905023
C -0.9166222879 -0.8643983008 -0.5714882796
C 0.4068915392 -0.5450154904 0.0723218008
O 0.8074962745 -1.0116776789 1.1186830175
O 1.1073788618 0.3255250636 -0.6463974486
C 2.3819303022 0.7266340062 -0.1405317727
H -2.8238372311 1.7726882414 0.649141554
H -2.7578544118 0.1215529174 1.2700685919
H -1.3193438659 1.134674067 1.316431713
H -1.2725305598 1.16400042 -1.1931022048
H -2.7058853729 0.129295829 -1.2165898395
H -0.7184916327 -1.2330820965 -1.5783832799
H -1.4011396502 -1.6445422369 0.0153465699
H 2.7704739176 1.441631962 -0.8587122691
H 3.0385905108 -0.1399876962 -0.0548726677
H 2.2676744535 1.1818767962 0.8440955571
*
