! pbe def2-sv(p) def2/J RI DEFGRID1 loosescf d4 GCP(DFT/SV(P)) printgap
%output
    printlevel normal
end
* xyz 0 1
C -3.2190032662 0.9622316574 -0.0463040584
C -2.6835842622 0.5672123794 1.1679654621
C -1.5546763928 -0.2327270311 1.2007358505
C -0.9523194455 -0.6468930598 0.0203250965
C -1.4926087599 -0.2441844627 -1.1939348932
C -2.6220584624 0.5545570454 -1.2275099077
C 0.309480196 -1.4767892004 0.0537987164
N 1.4713678095 -0.6168150695 0.0415151165
C 2.0403634277 -0.0080869367 1.1219828999
C 3.0517538649 0.7659594563 0.6320138082
N 3.1104057948 0.651624973 -0.7231350154
C 2.1479798181 -0.1767697569 -1.0395225638
H -4.0992664691 1.5861936333 -0.0723261365
H -3.1451697965 0.8829348759 2.0912042029
H -1.1419719372 -0.539615958 2.1505956335
H -1.0283708945 -0.5584268975 -2.1172123746
H -3.0361213072 0.8594620896 -2.1765553224
H 0.3404508762 -2.0858434759 0.9599951776
H 0.3592848491 -2.1277677892 -0.8216153868
H 1.6964095794 -0.175685164 2.1208136231
H 3.7416278782 1.3929148299 1.1603097957
H 1.9230810395 -0.4866739101 -2.0400693601
*
