  26
        -33.44568795
 C          4.7198955357       -0.7469950595        0.4080514112
 C          3.4565723169       -0.5422295717       -0.4188764232
 C          2.3921274366        0.2336302775        0.3533518230
 C          1.1244890023        0.4435423522       -0.4703880364
 C          0.0660497265        1.2263143293        0.3032077715
 C         -1.2222963446        1.3943886729       -0.4982700707
 O         -1.8285445838        0.1362646969       -0.7943475882
 C         -2.5967965911       -0.4102198959        0.1537286804
 O         -2.8313220015        0.1069041307        1.2135535085
 C         -3.1182008023       -1.7530574757       -0.2888147315
 H          5.4639429666       -1.3014309773       -0.1590957941
 H          5.1489992956        0.2113845757        0.6923676712
 H          4.4956413185       -1.3030563135        1.3157561281
 H          3.0528737975       -1.5141912505       -0.7116078520
 H          3.7057525548        0.0007015933       -1.3335240050
 H          2.7966016187        1.2053078258        0.6469224805
 H          2.1433355743       -0.3094600144        1.2680889518
 H          0.7132189255       -0.5259701879       -0.7596741315
 H          1.3727717104        0.9836530392       -1.3873447298
 H          0.4440752783        2.2191514484        0.5532236479
 H         -0.1694787285        0.7107724450        1.2363921772
 H         -1.9360783024        2.0061677892        0.0633779947
 H         -1.0220457305        1.8498703355       -1.4703740979
 H         -4.1077071671       -1.9156144390        0.1280588280
 H         -2.4528040758       -2.5251275020        0.0934089034
 H         -3.1395784071       -1.8095589020       -1.3724144970
