  28
        -42.90628007
 C          4.4156068923        1.8151073913       -1.1987699659
 C          3.5790249107        1.2676543634       -0.0496482631
 C          3.5166645768       -0.2577943302       -0.0760258863
 C          2.6528718645       -0.8161617042        1.0524517022
 O          1.3047367023       -0.3647501807        0.9576006266
 C          0.5014538256       -1.0333912262        0.1166449742
 O          0.8556887199       -1.9975472158       -0.5204039071
 C         -0.8628853164       -0.4640908145        0.0692779354
 C         -1.8125771781       -1.0871655805       -0.7370547449
 C         -3.0968250307       -0.5917671372       -0.8156704001
 C         -3.4514370852        0.5405432680       -0.0865324570
 C         -2.5031755726        1.1682905408        0.7209614237
 C         -1.2215365601        0.6696244797        0.7975653855
 O         -4.6994392481        1.0645422997       -0.1314954741
 H          5.4342380691        1.4372124561       -1.1427656557
 H          3.9923894307        1.5158275571       -2.1550159882
 H          4.4495715807        2.9013671552       -1.1632418904
 H          4.0068497046        1.5937757021        0.9014338888
 H          2.5648987210        1.6677356397       -0.1125396578
 H          3.1041356676       -0.5945003987       -1.0291240756
 H          4.5204911418       -0.6746602007        0.0241846658
 H          2.6636305260       -1.9110757047        1.0250241776
 H          3.0035434225       -0.4629658150        2.0248898738
 H         -1.5216509118       -1.9633888105       -1.2960760221
 H         -3.8324373713       -1.0788555227       -1.4422389809
 H         -2.7988839934        2.0439281404        1.2765094054
 H         -0.4873086887        1.1531707674        1.4219564127
 H         -5.2586251068        0.5434703580       -0.7212868030
