  7
  -7.58718301000000       0.166667548495774      !md1
 C          0.7352880274       -0.0000001853       -0.0124037507
 N         -0.7148470012        0.0000044509        0.0700573979
 H          1.1326486577       -0.0002743939       -1.0378410501
 H          1.1121772419       -0.8834542378        0.5018325474
 H          1.1121398745        0.8837137787        0.5014063035
 H         -1.0925919745       -0.8186979081       -0.3955459661
 H         -1.0925283835        0.8186531159       -0.3956197744
  7
  -7.58718301000000       0.166667548495774      !mtd7
 C          0.7353199028       -0.0000009809       -0.0123961253
 N         -0.7148624250        0.0000036554        0.0700677130
 H          1.1325723112        0.0001006669       -1.0379114959
 H          1.1121035700       -0.8836898787        0.5014777021
 H          1.1121607005        0.8835379337        0.5016610198
 H         -1.0925758370        0.8187315449       -0.3956026996
 H         -1.0925808403       -0.8187193767       -0.3956266836
  7
  -7.58718301000000       0.166667548495774      !mtd14
 C          0.7353044658       -0.0000061631       -0.0124065516
 N         -0.7148490973       -0.0000015268        0.0700556509
 H          1.1120898307        0.8835362111        0.5016937544
 H          1.1326421838        0.0001340209       -1.0378548662
 H          1.1121369606       -0.8836369243        0.5015562694
 H         -1.0925829062       -0.8186508320       -0.3956095070
 H         -1.0926074177        0.8187121869       -0.3954959339
  7
  -7.58718300000000       0.166665784837559      !gc
 C          0.7319529490       -0.0000015018       -0.0710369258
 N         -0.7181831837        0.0000031344        0.0114242856
 H          1.0481200060        0.8832093642       -0.6251157360
 H          1.0482269255       -0.8840674431       -0.6236677553
 H          1.2429216600        0.0008283764        0.9028874526
 H         -1.0406593931        0.8187109342        0.5168315810
 H         -1.0406574882       -0.8187068932        0.5168390137
  7
  -7.58718300000000       0.166665784837559      !gc
 C          0.7353332861       -0.0000042755       -0.0123946654
 N         -0.7148676094        0.0000003609        0.0700702286
 H          1.1120647665        0.8841721336        0.5005942817
 H          1.1325677900       -0.0011493421       -1.0378623648
 H          1.1121450386       -0.8829938635        0.5026292163
 H         -1.0925848508        0.8186179926       -0.3956956776
 H         -1.0926002794       -0.8186009853       -0.3957199700
  7
  -7.58718300000000       0.166665784837559      !gc
 C          0.7319982234       -0.0000042557       -0.0710443634
 N         -0.7182027361        0.0000003807        0.0114205343
 H          1.0481476925        0.8841725747       -0.6234327513
 H          1.0479964950       -0.8829933376       -0.6254654640
 H          1.2429215086       -0.0011504892        0.9027813719
 H         -1.0406970931       -0.8186011221        0.5170286645
 H         -1.0406847029        0.8186177978        0.5170034983
