  22
  -71.2358284500000       0.500103173994718      !mtd9
 C          0.7401570553       -0.0004065057       -0.0001318876
 C          1.4436806245       -0.9535606415        0.7323909662
 C          2.8376584854       -0.9593713669        0.7360997158
 C          3.5333990231        0.0001530552       -0.0002679995
 C          2.8372157923        0.9593606827       -0.7365927589
 C          1.4432424725        0.9530080787       -0.7327772723
 Cl         0.5786170034        2.1145089707       -1.6468759946
 Cl         3.6913803450        2.1342302648       -1.6394137563
 Cl         5.2426080421        0.0006968876       -0.0000925121
 Cl         3.6923534559       -2.1337558774        1.6389891465
 Cl         0.5795954168       -2.1154967844        1.6464488655
 C         -0.7401586374       -0.0003854375        0.0000848214
 C         -1.4436945906       -0.9535362267       -0.7324400047
 C         -2.8376825300       -0.9592608764       -0.7361614492
 C         -3.5334087813        0.0003246495        0.0001002651
 C         -2.8371946424        0.9594800683        0.7365129288
 C         -1.4432341574        0.9530137202        0.7327569778
 Cl        -0.5785964376        2.1144824307        1.6468837444
 Cl        -3.6912948320        2.1343164915        1.6394046005
 Cl        -5.2425846283        0.0006967881        0.0001741788
 Cl        -3.6924491596       -2.1338278725       -1.6388104166
 Cl        -0.5796224686       -2.1154512599       -1.6465636357
  22
  -71.2358280600000       0.499896826005282      !md4
 C          0.7401472946       -0.0017219369       -0.0020922551
 C          1.4432861707       -0.7349467291        0.9507852347
 C          2.8372144528       -0.7368884836        0.9586249824
 C          3.5334449804        0.0018266545        0.0012089073
 C          2.8375825822        0.7378395459       -0.9584694561
 C          1.4436153643        0.7324979915       -0.9539853803
 Cl         0.5793542515        1.6466993249       -2.1155658053
 Cl         3.6922821678        1.6426251075       -2.1316840834
 Cl         5.2425048506        0.0051470887        0.0041248816
 Cl         3.6913224765       -1.6401227037        2.1332161276
 Cl         0.5784818101       -1.6518628104        2.1101102661
 C         -0.7401731912       -0.0013660983       -0.0016808084
 C         -1.4447488221       -0.7346375586       -0.9534027651
 C         -2.8387335748       -0.7375634348       -0.9581930641
 C         -3.5333737524        0.0003301105        0.0009782599
 C         -2.8360668121        0.7373654715        0.9588405217
 C         -1.4421299970        0.7327813177        0.9514258698
 Cl        -0.5760002277        1.6473969215        2.1114009061
 Cl        -3.6887022709        1.6420447769        2.1333301524
 Cl        -5.2425003436        0.0013095152        0.0027469579
 Cl        -3.6949004388       -1.6415060377       -2.1306264316
 Cl        -0.5818641934       -1.6502123522       -2.1150338192
