  12
        -32.07387429
 C          1.1941864984       -1.2072296278       -0.0001001621
 C          1.8762431240        0.0000564286        0.0000408494
 C          1.1941253956        1.2073348764        0.0000051680
 C         -0.1920716018        1.2014410499       -0.0000301149
 C         -0.9011024369        0.0000226553        0.0000587783
 C         -0.1919898450       -1.2013481619        0.0000980051
 Cl        -1.0424248741       -2.6912239736        0.0000705079
 Cl        -2.6168085424       -0.0000926812       -0.0001171878
 Cl        -1.0424988636        2.6912299021        0.0000614547
 Cl         3.5940338027       -0.0000122398       -0.0000355155
 H          1.7292985160       -2.1426383984       -0.0003416460
 H          1.7291469722        2.1428168758        0.0002069501
