! r2scan-3c def2/J RI DEFGRID2 scfconv6 printgap
%output
    printlevel normal
end
* xyz 0 1
C -3.7481664334 -0.1118919293 -0.4110044641
C -2.2439971519 -0.1717877558 -0.6452622679
C -1.4578348485 0.1613947699 0.628953294
C 0.0194341659 0.0962864515 0.3703842993
C 0.7147354702 -1.0961026913 0.5289876871
C 2.0683344884 -1.168240196 0.2513619407
C 2.7469375646 -0.0459240676 -0.1925610813
C 2.0636683699 1.1471610969 -0.3563904258
C 0.7101056776 1.2154984304 -0.0777272602
H -4.0429822753 -0.8231061442 0.3573147239
H -4.0442557951 0.8835934736 -0.0878848459
H -4.2853933118 -0.3508444281 -1.3254656517
H -1.9651839972 0.5342511766 -1.4306633902
H -1.9638064328 -1.1711462448 -0.9856333203
H -1.730267119 -0.5495795316 1.4114378443
H -1.7327927954 1.1630977219 0.9651080422
H 0.1903056365 -1.9748403553 0.8765507273
H 2.5956301072 -2.1018104947 0.3823212714
H 3.8035191501 -0.1004905596 -0.4085384413
H 2.587252035 2.0266975547 -0.701396026
H 0.1819692184 2.1496430179 -0.2060081816
*
