! r2scan-3c def2/J RI DEFGRID2 scfconv6 printgap
%output
    printlevel normal
end
* xyz 0 1
C 1.4653316721 -2.4425140328 -0.963665833
O 1.0879366271 -1.7698589319 0.2394294582
C 0.7240352462 -0.4587267849 0.0869080693
C 1.6748928362 0.563103641 0.0430279619
C 1.2909639177 1.8919429723 -0.0389018429
C -0.050432113 2.2253772895 -0.07024628
C -1.0055225648 1.2234221294 -0.0098697886
C -0.631735999 -0.1149991802 0.0625415278
C -1.6433184744 -1.2193597443 0.1014329102
O -1.7089480206 -2.0925489572 -0.7332921601
O -2.447156455 -1.1328789172 1.1380865771
Cl -2.6793444182 1.6417748665 -0.0670889871
Cl 3.3532298677 0.1558537745 0.1226327975
H 2.2550721371 -1.9006039812 -1.4875315703
H 0.5953231798 -2.5595575765 -1.6145043718
H 1.8273882466 -3.4160055531 -0.6448490855
H 2.0445165305 2.6612606011 -0.0737677355
H -0.3569834825 3.255798198 -0.1355706189
H -3.1041367124 -1.8577809307 1.1757547146
*
