  18
        -20.88884880
 C          2.0267835158       -0.9912190285        0.1585955439
 C          0.8368238220       -0.0390069711        0.2589372893
 C          1.3108084074        1.4041825513        0.1090251404
 C         -0.2152119174       -0.3950214145       -0.7987482956
 C         -1.5822509374        0.2339398679       -0.5224748099
 O         -2.1312371843       -0.1645044882        0.7114059329
 H          2.4902417719       -0.9145142827       -0.8231696807
 H          1.7153134261       -2.0225794692        0.3111066688
 H          2.7741482849       -0.7467776610        0.9098023709
 H          0.3757419334       -0.1531972622        1.2460615335
 H          2.0573799534        1.6353629510        0.8653733086
 H          0.4852805114        2.1006605846        0.2266251660
 H          1.7572694755        1.5574896210       -0.8718060406
 H         -0.3376484919       -1.4825085745       -0.8271059194
 H          0.1261530331       -0.0736680651       -1.7845516396
 H         -1.5063241647        1.3211518337       -0.4668032138
 H         -2.2698838901       -0.0191844811       -1.3443068278
 H         -2.1622297957       -1.1276926579        0.7358303473
