! pbe def2-sv(p) def2/J RI DEFGRID1 loosescf d4 GCP(DFT/SV(P)) printgap
%output
    printlevel normal
end
* xyz 0 1
C 1.5017834749 -2.407725057 0.9940460318
O 1.0949953357 -1.7653293725 -0.2183579577
C 0.7068146585 -0.4549515118 -0.0857806619
C 1.6600421561 0.5577704491 0.0173772991
C 1.280488516 1.8874184797 0.1087425786
C -0.0592367703 2.2212094209 0.0903957392
C -1.0216258161 1.2273783354 -0.0095281119
C -0.6605573889 -0.1220546455 -0.0946800494
C -1.7107048775 -1.1894478463 -0.1564461401
O -2.8034698454 -1.0519956866 0.3502010979
O -1.4099606251 -2.308652567 -0.7913780944
Cl -2.6805971077 1.7016312477 -0.0654455626
Cl 3.3419472414 0.1487405576 -0.0189485863
H 0.6440963469 -2.5297093859 1.6602300953
H 2.2820125281 -1.8399339183 1.5004401685
H 1.8847598829 -3.3786363932 0.6932917348
H 2.0340312638 2.6539902781 0.1829721576
H -0.3692579929 3.2505358519 0.1485257943
H -0.4596381316 -2.3657436548 -1.0451050643
*
