  11
  -30.2778820700000       5.691048462686023E-002 !md3
 C         -2.7927826023       -0.3918543171       -0.0000317545
 O         -1.3868727294       -0.6465450330        0.0000407937
 C         -0.6004923024        0.4062728150        0.0001689924
 O         -0.9206770994        1.5561877887        0.0000168536
 C          0.8838569598       -0.0703080886        0.0000330947
 F          1.7277790291        0.9570620994        0.0006693327
 F          1.1505894545       -0.8176503393        1.0773485546
 F          1.1506773710       -0.8163665254       -1.0781765112
 H         -3.2714864736       -1.3667353153       -0.0162706011
 H         -3.0673882875        0.1906285746       -0.8805430207
 H         -3.0721710735        0.1627214664        0.8968586800
  11
  -30.2778819800000       5.690506487061263E-002 !gc
 C         -2.7927274080       -0.3921669304        0.0019330533
 O         -1.3867160457       -0.6464320036        0.0025142815
 C         -0.6004683409        0.4064440690       -0.0004802702
 O         -0.9207381946        1.5563472909       -0.0043915741
 C          0.8838712112       -0.0701927716        0.0000842235
 F          1.7280229775        0.9569559550        0.0035994722
 F          1.1493667120       -0.8198399321        1.0761175592
 F          1.1515138393       -0.8142242298       -1.0794195512
 H         -3.0736964942        0.1554962844        0.9025882537
 H         -3.2710741389       -1.3669950853       -0.0222082875
 H         -3.0662229215        0.1969899991       -0.8745034692
  11
  -30.2778819500000       5.690325839996820E-002 !md2
 C         -2.7412552200        0.1045327138       -0.6543518008
 O         -1.3271991332       -0.0721276247       -0.7583109609
 C         -0.6265094613        0.1561438351        0.3296766861
 O         -1.0309292786        0.4954365705        1.4002442194
 C          0.8822104118       -0.0864726030        0.0208583118
 F          1.3130681539        0.7305073949       -0.9474162933
 F          1.6407363963        0.1207194283        1.0929598028
 F          1.0947569746       -1.3409974378       -0.3927153008
 H         -3.1410914687       -0.1111047824       -1.6409878528
 H         -2.9693676999        1.1292999618       -0.3579983754
 H         -3.1499428862       -0.5818371054        0.0885439252
  11
  -30.2778819200000       5.690145198645688E-002 !md1
 C         -2.7927833332       -0.3920026582        0.0022572877
 O         -1.3868449976       -0.6464978051        0.0026430306
 C         -0.6004650974        0.4063414224       -0.0005399132
 O         -0.9206532651        1.5562581677       -0.0049411609
 C          0.8838652559       -0.0702566661        0.0001124595
 F          1.7278546325        0.9570341478        0.0039412531
 F          1.1493924182       -0.8200897811        1.0760037276
 F          1.1517340837       -0.8139497505       -1.0795492075
 H         -3.0634894002        0.2135720078       -0.8637936389
 H         -3.0762790002        0.1386191444        0.9122531485
 H         -3.2712904030       -1.3661518033       -0.0412449902
  11
  -30.2778817700000       5.689242077989765E-002 !mtd2
 C         -2.7405876153        0.1103178652        0.6562795067
 O         -1.3262240505       -0.0636054486        0.7603417168
 C         -0.6267394561        0.1536432047       -0.3307009607
 O         -1.0325115053        0.4789633583       -1.4050570837
 C          0.8822211423       -0.0858485774       -0.0207393841
 F          1.3099875966        0.7279774140        0.9514360520
 F          1.0969614908       -1.3417267091        0.3880380891
 F          1.6417422583        0.1273144583       -1.0909371963
 H         -3.1471776925       -0.1748159483        1.6223268493
 H         -3.1388273162       -0.5242531065       -0.1366484057
 H         -2.9725491092        1.1521865407        0.4310112821
  11
  -30.2778816400000       5.688459489358487E-002 !gc
 C         -2.7409310197        0.1070463744        0.6557813540
 O         -1.3266958239       -0.0679210497        0.7590965098
 C         -0.6266430757        0.1540364108       -0.3306942643
 O         -1.0314568161        0.4885941143       -1.4026444021
 C          0.8821752964       -0.0861978307       -0.0208259154
 F          1.3109354092        0.7285947260        0.9500466967
 F          1.0960901278       -1.3416770704        0.3895995763
 F          1.6414283764        0.1248270488       -1.0916474292
 H         -2.9686656199        1.1025128733        0.2721306016
 H         -3.1308110847       -0.0201162061        1.6616300177
 H         -3.1603650500       -0.6408750952       -0.0185726564
  11
  -30.2778814300000       5.687195535122155E-002 !mtd12
 C         -2.7405797089        0.1122938007        0.6570288303
 O         -1.3261266238       -0.0608498233        0.7606273453
 C         -0.6269538183        0.1511679542       -0.3316106705
 O         -1.0324103571        0.4750384644       -1.4065988589
 C          0.8821832907       -0.0860865606       -0.0205277595
 F          1.3081699327        0.7276377899        0.9524177266
 F          1.0984532009       -1.3419577711        0.3872094081
 F          1.6420707998        0.1291776428       -1.0901778047
 H         -3.1618741475       -0.6510684560        0.0014682974
 H         -2.9689115201        1.0986352840        0.2508620379
 H         -3.1280580263        0.0085349651        1.6664908617
  11
  -30.2778805500000       5.681902018525327E-002 !mtd6
 C         -2.7402405657        0.1165527726       -0.6587897361
 O         -1.3253316230       -0.0531642688       -0.7618659927
 C         -0.6271617095        0.1485072436        0.3329415755
 O         -1.0331190968        0.4622856545        1.4106925058
 C          0.8821200170       -0.0856051856        0.0204558243
 F          1.3059173762        0.7272296358       -0.9540963582
 F          1.6429120322        0.1319693527        1.0888575012
 F          1.0997096154       -1.3418987973       -0.3859825167
 H         -2.9705845665        1.0780430316       -0.1978757806
 H         -3.1666492033       -0.6832364999       -0.0517026537
 H         -3.1208693537        0.0709096872       -1.6751793964
  11
  -30.2778803800000       5.680879975359235E-002 !md2
 C         -2.7417335178        0.1009359052       -0.6566660094
 O         -1.3274759299       -0.0767728996       -0.7557879229
 C         -0.6262234836        0.1593636468        0.3300630873
 O         -1.0290683136        0.5027327819        1.3999609551
 C          0.8820024828       -0.0862357205        0.0209733603
 F          1.3139615334        0.7299586847       -0.9474379332
 F          1.6411733570        0.1196679015        1.0928324234
 F          1.0924012569       -1.3411312448       -0.3926564755
 H         -3.1242948772       -0.4142993175        0.2254480954
 H         -3.1600773553       -0.3205734998       -1.5663060792
 H         -2.9770793477        1.1635055047       -0.5818359760
  11
  -30.2778659400000       5.594734079888329E-002 !gc
 C         -2.7430775352        0.1026513866        0.6721318143
 O         -1.3258283886       -0.0625982240        0.7519635165
 C         -0.6267460101        0.1541248898       -0.3385305991
 O         -1.0229703115        0.4870328287       -1.4143284388
 C          0.8808921892       -0.0856638504       -0.0209544925
 F          1.3028965869        0.7219678371        0.9588194221
 F          1.0937438061       -1.3441081970        0.3811809424
 F          1.6464809010        0.1344465590       -1.0852731408
 H         -3.0668620173        0.4683861448        1.6436716549
 H         -3.2031268758       -0.8633647912        0.4610667477
 H         -2.9957231361        0.8111623417       -0.1176048905
  11
  -30.2778511400000       5.507795921041805E-002 !gc
 C         -2.7456737449        0.0805260792       -0.6739000901
 O         -1.3281577451       -0.0896974410       -0.7415413910
 C         -0.6256288561        0.1665300966        0.3377641370
 O         -1.0148594017        0.5399218320        1.4028304808
 C          0.8803103666       -0.0867621270        0.0218342762
 F          1.3105029043        0.7251148349       -0.9513175902
 F          1.6459002425        0.1191133781        1.0889528038
 F          1.0834886638       -1.3434308790       -0.3895087758
 H         -3.2110653722       -0.9043689073       -0.6330655801
 H         -3.0472919917        0.5983228191       -1.5820980652
 H         -3.0136977102        0.6587001087        0.2110396848
  11
  -30.2778442700000       5.467900545558080E-002 !gc
 C         -2.7977399186       -0.4222844466        0.0063783818
 O         -1.3841112851       -0.6345029301        0.0085839639
 C         -0.5996363461        0.4181935376       -0.0023008920
 O         -0.9067559682        1.5718351541       -0.0145535427
 C          0.8819242418       -0.0686116534        0.0002808064
 F          1.7331843284        0.9523064162        0.0104502735
 F          1.1397787411       -0.8252961325        1.0731382578
 F          1.1466762923       -0.8095607948       -1.0822733532
 H         -3.0177977392        0.6455222137       -0.0191006404
 H         -3.2033329068       -0.8744097392        0.9104889272
 H         -3.2055194893       -0.9182055175       -0.8733548474
  11
  -30.2772763500000       2.997937990587110E-002 !gc
 C         -2.7139851187        0.8041684440       -0.1213903352
 O         -1.2866882012        0.8544953708       -0.1507044963
 C         -0.6574439981       -0.2771971438        0.0681260485
 O         -1.1413949521       -1.3467684648        0.2887695229
 C          0.8853044420       -0.0592893710       -0.0003417766
 F          1.2167344300        1.2183284835       -0.1924568909
 F          1.4708192228       -0.4603411665        1.1311753742
 F          1.4164090492       -0.7663722963       -1.0026824432
 H         -3.0566597204        0.4807914613        0.8625200133
 H         -3.0794482709        0.1040742826       -0.8740170408
 H         -3.0513192602        1.8142290843       -0.3356428333
  11
  -30.2772759800000       2.996764431406999E-002 !gc
 C         -2.7964267056       -0.2593944123       -0.3749465374
 O         -1.3934868689       -0.5195825496       -0.4430637957
 C         -0.6094037321        0.3367535629        0.1704791162
 O         -0.9339022906        1.3099124049        0.7824818313
 C          0.8830801105       -0.0856493410        0.0081829066
 F          1.5986785527        0.9028568725       -0.5346635454
 F          1.4235962996       -0.3698891600        1.1972283141
 F          1.0323908342       -1.1611069306       -0.7665322373
 H         -3.0278720383        0.6752241872       -0.8877769371
 H         -3.1135873379       -0.1830493158        0.6660630788
 H         -3.2786976614       -1.0989710712       -0.8673783697
  11
  -30.2772758800000       2.996447332126251E-002 !mtd10
 C         -2.7931494295       -0.2287627800       -0.4162716618
 O         -1.3903667551       -0.4880336760       -0.4875146978
 C         -0.6110512147        0.3210749849        0.1927287232
 O         -0.9399393625        1.2524585408        0.8644767702
 C          0.8827672419       -0.0884363369        0.0114672688
 F          1.5684811899        0.8878876872       -0.5913804329
 F          1.4585410848       -0.3145932724        1.1951978022
 F          1.0287701148       -1.1921476327       -0.7229881309
 H         -3.1439838921       -0.3511176671        0.6095052578
 H         -3.2633695492       -0.9542332560       -1.0739528111
 H         -3.0034312009        0.7897528922       -0.7458633052
  11
  -30.2772719200000       2.983917136614029E-002 !gc
 C         -2.7134754525        0.8153596937        0.0040389271
 O         -1.2859325917        0.8690059177        0.0050521803
 C         -0.6579796600       -0.2842142985       -0.0023776120
 O         -1.1429605898       -1.3758423097       -0.0092870770
 C          0.8853349624       -0.0590570454       -0.0000345045
 F          1.2171480357        1.2328076349        0.0069670992
 F          1.4428739461       -0.6223198469        1.0756613450
 F          1.4445380533       -0.6110560790       -1.0806790926
 H         -3.0496899548        1.8476316616        0.0378889769
 H         -3.0679680490        0.2617564295        0.8746829940
 H         -3.0682242054        0.3210332008       -0.9014779924
  11
  -30.2772688200000       2.974144720375698E-002 !gc
 C         -2.7138006957        0.8166262467        0.0179971309
 O         -1.2862116534        0.8676651021        0.0218581653
 C         -0.6579360661       -0.2850217482       -0.0089351583
 O         -1.1418382745       -1.3766053173       -0.0434717086
 C          0.8852047005       -0.0589016779        0.0002677537
 F          1.2162460767        1.2328629911        0.0294720218
 F          1.4406853549       -0.6396221166        1.0678814891
 F          1.4472225268       -0.5927831321       -1.0879400431
 H         -3.0647369757        0.1764948311       -0.7926222024
 H         -3.0482602787        1.8407761821       -0.1212721181
 H         -3.0737077351        0.4198835928        0.9683675372
  11
  -30.2772545700000       2.929633213903097E-002 !gc
 C         -2.7973904061       -0.2552839313        0.3976533568
 O         -1.3919515910       -0.5043880952        0.4585498294
 C         -0.6098328619        0.3346508175       -0.1800404390
 O         -0.9314288946        1.2903421391       -0.8205941493
 C          0.8823718979       -0.0861979355       -0.0093212121
 F          1.5869900963        0.8944906319        0.5622197238
 F          1.0274204297       -1.1760951065        0.7458025538
 F          1.4383868566       -0.3439609032       -1.1967878205
 H         -3.0679351593        0.4937809955        1.1430268830
 H         -3.2822036265       -1.2022958741        0.6193090986
 H         -3.0733975231        0.1052763390       -0.5941412146
  11
  -30.2772522100000       2.922326052233784E-002 !gc
 C         -2.7994881563       -0.2714214630        0.3814918992
 O         -1.3928783296       -0.5147608720        0.4399595436
 C         -0.6093037413        0.3399619446       -0.1752670453
 O         -0.9265845605        1.3180020972       -0.7834515641
 C          0.8821456738       -0.0855768240       -0.0088822593
 F          1.5976164089        0.9006821124        0.5382880890
 F          1.0276837845       -1.1629645377        0.7639469888
 F          1.4257158990       -0.3681946414       -1.1967858800
 H         -3.2102979942       -0.7395375568       -0.5139645000
 H         -2.9954808706        0.8012220746        0.3542604919
 H         -3.2249799111       -0.7251418519        1.2729278296
  11
  -30.2772505300000       2.917135451645478E-002 !gc
 C         -2.7153250866        0.8244761659       -0.0036904337
 O         -1.2871635994        0.8624436705       -0.0039691266
 C         -0.6580139820       -0.2896850083       -0.0000745804
 O         -1.1361693021       -1.3843788430        0.0109880301
 C          0.8845571143       -0.0582864957       -0.0006531545
 F          1.2118894507        1.2348009320       -0.0060003863
 F          1.4447069945       -0.6093961112        1.0800608272
 F          1.4451849045       -0.6183645810       -1.0763189652
 H         -3.0762340950        0.7245043180       -1.0281670020
 H         -3.0441688583        1.7688447801        0.4221227583
 H         -3.0696459771       -0.0192953102        0.5898489147
  11
  -30.2772369800000       2.875606432254824E-002 !gc
 C         -2.7168635364        0.8182330265       -0.1254622586
 O         -1.2885052262        0.8439531968       -0.1503806305
 C         -0.6575780429       -0.2850926688        0.0724403088
 O         -1.1305515469       -1.3601173927        0.2912125822
 C          0.8840644755       -0.0580591153        0.0000355564
 F          1.2083842791        1.2210426195       -0.1948456026
 F          1.4739807705       -0.4537742325        1.1309932083
 F          1.4169936456       -0.7638449276       -1.0021938261
 H         -3.0607586084        1.0998848172        0.8703912094
 H         -3.0799781998       -0.1804083572       -0.3712662968
 H         -3.0525163971        1.5481060214       -0.8583218987
  11
  -30.2772347000000       2.868676864728895E-002 !gc
 C         -2.7986229418       -0.2550709300       -0.4115439522
 O         -1.3909446376       -0.4936761306       -0.4670187007
 C         -0.6102256365        0.3314041745        0.1904548411
 O         -0.9278090250        1.2830413060        0.8391677739
 C          0.8816416338       -0.0871686128        0.0108189346
 F          1.5780770772        0.8909287204       -0.5754982096
 F          1.4487533790       -0.3329074707        1.1952447176
 F          1.0237899950       -1.1830980974       -0.7361177363
 H         -2.9945418300        0.8021045778       -0.2278400312
 H         -3.2303049533       -0.8539417051        0.3911535089
 H         -3.2030306030       -0.5670393439       -1.3715083860
  11
  -30.2772041000000       2.777274742890873E-002 !gc
 C         -2.8024369460       -0.2818486106        0.3924474100
 O         -1.3920998147       -0.5085023667        0.4382458062
 C         -0.6090321604        0.3447939565       -0.1780682492
 O         -0.9193043798        1.3199619173       -0.7946867286
 C          0.8811437646       -0.0850659502       -0.0090067816
 F          1.5961934080        0.8971434049        0.5460902755
 F          1.0225203536       -1.1666799164        0.7587998714
 F          1.4282899225       -0.3621738787       -1.1962818531
 H         -3.2632260063       -1.1486355001       -0.0794569060
 H         -3.0199695658        0.6236790254       -0.1750208867
 H         -3.1560115314       -0.1851225791        1.4180152854
