! r2scan-3c def2/J RI DEFGRID2 scfconv6 printgap
%output
    printlevel normal
end
* xyz 0 1
C 1.7089611958 0.6368148787 -0.9678162286
C 1.4149360151 0.1000232436 0.4314124635
C 1.6105005963 -1.4132844922 0.4869028447
C 0.0057473139 0.5034589026 0.8882464845
C -1.1190941131 0.0998431233 -0.0271985446
O -1.1338714893 -0.8321779833 -0.8015711587
O -2.1675752114 0.9015765876 0.1221035951
H 2.736202546 0.4180471487 -1.2472852765
H 1.5627185973 1.7138864155 -1.0059013737
H 1.050168722 0.1695042164 -1.6962703386
H 2.1180212847 0.5635645272 1.1325616568
H 2.6187218221 -1.67333219 0.1748562122
H 1.4564228323 -1.7841366365 1.497581048
H 0.9051562616 -1.9074738053 -0.1757536494
H -0.0608360378 1.5845546356 1.0193518543
H -0.2083876622 0.0426417335 1.856400047
H -2.9225849463 0.6427615019 -0.4407648204
*
