! r2scan-3c def2/J RI DEFGRID2 scfconv6 printgap
%output
    printlevel normal
end
%cpcm
    smd true
    smdsolvent "water"
end
* xyz 0 1
C 2.2077001573 -0.6427448167 -0.5129041369
O 0.7922064393 -0.8699175122 -0.5099036747
S -0.0613972657 0.3787960963 -0.0580058057
O -0.0466488037 1.3860447221 -1.0724752253
O 0.3453729717 0.7740420173 1.2604181043
O -1.4809950123 -0.2516286537 -0.0446961032
C -1.7162798985 -1.2345321121 0.9793355676
H 2.5067322873 -0.2741453013 0.468116717
H 2.4511078602 0.0940445022 -1.2778132716
H 2.6617937912 -1.6057845105 -0.7322523541
H -1.2501165036 -0.8904914306 1.9016314244
H -1.2846228176 -2.1830013706 0.6635193303
H -2.7959012546 -1.3062323742 1.0841157644
*
