! r2scan-3c def2/J RI DEFGRID2 scfconv6 printgap
%output
    printlevel normal
end
* xyz 0 1
C -3.3052580118 1.1374201931 -0.7396280768
C -1.9335616281 1.3209836458 -0.1758708877
O -1.6196442677 2.1275345438 0.6697526142
O -1.0732701658 0.4446164705 -0.716654187
C 0.2616538979 0.4370356846 -0.3390363831
C 1.0314765145 1.5827161332 -0.4712627537
C 2.3791936372 1.5548328749 -0.1565629871
C 2.971092157 0.3796094598 0.2793556303
C 2.2082804624 -0.7633784812 0.4070179984
C 0.844314602 -0.7536142657 0.1116168076
C 0.0965320012 -2.0167998875 0.3032968704
O 0.6453321256 -3.0789428356 0.5324019065
O -1.220368956 -1.9123160282 0.2283514271
H -3.7850545633 2.1052566213 -0.8496333014
H -3.886399561 0.5485872465 -0.0329506241
H -3.2523871127 0.6097766957 -1.6855381868
H 0.5650796254 2.4915508173 -0.8177588681
H 2.9653183729 2.45390691 -0.2591967077
H 4.0216849157 0.3558731439 0.5184559379
H 2.6394155709 -1.6935882246 0.7441790778
H -1.6582863768 -2.7767675332 0.3587075093
*
