! r2scan-3c def2/J RI DEFGRID2 scfconv6 printgap
%output
    printlevel normal
end
* xyz 0 1
C -2.6515684167 0.0064689114 0.8251375447
C -1.7219248058 0.7321392221 -0.1486112122
C -0.4999303838 -0.1066938004 -0.4247283109
O -0.5196161492 -1.2165491215 -0.9172746121
O 0.6108792538 0.5094493187 -0.0495898478
C 1.8716926138 -0.163154404 -0.2161603226
C 2.8128886077 0.2941856739 0.8829734595
H -3.5672102281 0.5747860095 0.955734348
H -2.8976898189 -0.978853001 0.4366978657
H -2.1714193799 -0.1126262289 1.7930797044
H -1.4034209917 1.6921401855 0.254284918
H -2.2399843284 0.8854279627 -1.0964033201
H 1.695573844 -1.2430864082 -0.1830840736
H 2.2589727287 0.099657792 -1.2052205566
H 2.9351973696 1.3723242468 0.8398755386
H 2.4133276788 0.0253222526 1.8566581683
H 3.7783506826 -0.1825072896 0.7494217724
*
