! r2scan-3c def2/J RI DEFGRID2 scfconv6 printgap
%output
    printlevel normal
end
* xyz 0 1
C 2.1501373245 0.649517343 -0.877079671
C 1.5727527551 -0.6321361301 -0.2844450298
C 0.2998934306 -0.4361200016 0.5648036376
H 0.2843591835 -1.2547967934 1.3069737927
C -1.0172637827 -0.5610815259 -0.237912069
C -2.2190668882 -0.5639158483 0.7108550506
C -1.1845125254 0.5412367255 -1.280685107
O 0.4057124633 0.7964796054 1.2511462369
H 1.4822472139 1.0932318109 -1.6072733046
H 3.0976092649 0.4287398168 -1.3628205628
H 2.3217089496 1.3745684957 -0.0865577458
H 1.3535221992 -1.3486180698 -1.0771801483
H 2.3365504456 -1.071816624 0.3603585786
H -0.9815118587 -1.5322950436 -0.7430323247
H -3.1213509846 -0.8279979159 0.1649517256
H -2.0814805124 -1.2886985894 1.5109521227
H -2.3698912032 0.4216120653 1.1459886709
H -2.2044530775 0.5454859504 -1.6581481234
H -0.5141826223 0.3880223466 -2.1210733718
H -0.9738207365 1.5105099736 -0.8344830725
H -0.3259637647 0.865381224 1.8774408507
*
