! r2scan-3c def2/J RI DEFGRID2 scfconv6 printgap
%output
    printlevel normal
end
%cpcm
    smd true
    smdsolvent "water"
end
* xyz 0 1
C 2.1860328501 0.7565460977 -0.4235837523
C 1.2580585305 0.2317739552 0.6765201119
C 0.0278220556 -0.3876113294 0.0653937673
O -0.1480199106 -1.5905293324 0.0495221325
C -0.9774090143 0.569223645 -0.5316463949
C -2.3228180157 0.4251951625 0.1847231342
H 3.0781768907 1.1843025598 0.0243739698
H 2.4838745829 -0.0564760012 -1.0814208143
H 1.6936341578 1.5206351599 -1.018355631
H 1.7786192072 -0.5242642072 1.2661591363
H 0.9572559427 1.0546553649 1.3258237498
H -1.1100947908 0.3031659124 -1.5822682424
H -0.6221197949 1.5954184774 -0.4624783621
H -3.0727608385 1.0450933994 -0.297711961
H -2.2339105754 0.7286579372 1.2252005362
H -2.6489362906 -0.6118661768 0.1553140674
*
