  11
  -21.6530333400000       5.146080281509303E-002 !md4
 C         -2.4489935512       -0.8257697922       -0.2329799800
 O         -1.1748895732       -0.6700100257        0.3817405342
 C         -0.5612378952        0.4928423216        0.1791250079
 O         -1.0217284418        1.4081384074       -0.4446173034
 C          0.8097515398        0.4970186503        0.8299382509
 Cl         1.9163989516       -0.3561469961       -0.2792809934
 H         -2.3520181053       -0.7787887506       -1.3190611211
 H         -3.1251283048       -0.0342201165        0.0953734820
 H         -2.8169725870       -1.8001569652        0.0764720748
 H          0.8024831872       -0.0476767645        1.7721802613
 H          1.1739876267        1.5158570478        0.9484090285
  11
  -21.6530333200000       5.145971371540621E-002 !md7
 C         -2.4485690703       -0.8259179238       -0.2330519529
 O         -1.1740753150       -0.6698038126        0.3807540677
 C         -0.5613107966        0.4935740184        0.1787676551
 O         -1.0226765625        1.4091968883       -0.4438709573
 C          0.8099792298        0.4982301325        0.8290310863
 Cl         1.9162132897       -0.3574285636       -0.2786562113
 H         -2.8193084202       -1.7972666600        0.0825490090
 H         -2.3513387584       -0.7863053971       -1.3194058737
 H         -3.1224589002       -0.0303079632        0.0900593139
 H          0.8026616539       -0.0446693598        1.7723241581
 H          1.1745487810        1.5171760461        0.9456087704
  11
  -21.6530333100000       5.145916917439979E-002 !md1
 C         -2.4663476425       -0.8086792645       -0.0264057977
 O         -1.1091252161       -0.7388330325       -0.4489904674
 C         -0.5194833022        0.4490302892       -0.3434092003
 O         -1.0601117278        1.4476404845        0.0431320131
 C          0.9369420900        0.3644834314       -0.7615825397
 Cl         1.8438607433       -0.2796547775        0.6332106032
 H         -2.7971701521       -1.8218374447       -0.2377808402
 H         -3.0694057121       -0.0819739493       -0.5739409601
 H         -2.5403189981       -0.5953573370        1.0414096284
 H          1.3283633126        1.3546882377       -0.9871252199
 H          1.0712874396       -0.3278478847       -1.5905216679
  11
  -21.6530333000000       5.145862463896220E-002 !md8
 C         -2.4665817305       -0.8085267346       -0.0260701936
 O         -1.1094757519       -0.7392168972       -0.4490370078
 C         -0.5194117581        0.4485092161       -0.3438263691
 O         -1.0596012364        1.4472455129        0.0429139070
 C          0.9368203520        0.3633333184       -0.7623412182
 Cl         1.8439046371       -0.2787014111        0.6336314387
 H         -3.0704108598       -0.0851381674       -0.5770715767
 H         -2.5407562345       -0.5901433656        1.0406879363
 H         -2.7962808989       -1.8230154480       -0.2326366150
 H          1.3284109535        1.3532179544       -0.9893672460
 H          1.0710975726       -0.3303232727       -1.5901604416
  11
  -21.6530332800000       5.145753558537357E-002 !mtd3
 C         -2.4485116614       -0.8258230895       -0.2329766378
 O         -1.1741296310       -0.6698592189        0.3808805626
 C         -0.5612344378        0.4935971664        0.1788589559
 O         -1.0225705359        1.4090142598       -0.4440204179
 C          0.8098308238        0.4980958171        0.8293810033
 Cl         1.9162017935       -0.3572949058       -0.2788472942
 H         -3.1255608964       -0.0362008803        0.0982266650
 H         -2.8147833523       -1.8015838917        0.0741917010
 H         -2.3528749067       -0.7757164800       -1.3190619522
 H          0.8023737416       -0.0454821076        1.7722636733
 H          1.1747077394        1.5168817990        0.9464457610
  11
  -21.6530332500000       5.145590204839965E-002 !md8
 C         -2.4643231139       -0.8093251769       -0.0284943055
 O         -1.1066943606       -0.7366175734       -0.4491025140
 C         -0.5195688718        0.4523013439       -0.3417564102
 O         -1.0626370572        1.4493840989        0.0452998834
 C          0.9374114517        0.3713783289       -0.7586694183
 Cl         1.8428598150       -0.2852113940        0.6314083063
 H         -2.5415167414       -0.5868116635        1.0372397359
 H         -2.7897722644       -1.8259127514       -0.2315845313
 H         -3.0698178263       -0.0904789138       -0.5836737665
 H          1.3290055475        1.3636261463       -0.9751237208
 H          1.0728650095       -0.3135918284       -1.5935777737
  11
  -21.6528894500000       4.419257337384819E-002 !gc
 C         -2.4628316006       -0.8312862661       -0.0344666908
 O         -1.1036080818       -0.7238438251       -0.4445084239
 C         -0.5208460179        0.4664860784       -0.3378919616
 O         -1.0566742482        1.4668180237        0.0512246527
 C          0.9367774925        0.3816622045       -0.7541550874
 Cl         1.8387479830       -0.2979370443        0.6263609321
 H         -3.1099181015       -0.7563835132       -0.9098866713
 H         -2.7073445488       -0.0335820197        0.6686095733
 H         -2.5781441505       -1.8070762596        0.4327319853
 H          1.3336414957        1.3746095150       -0.9579228053
 H          1.0685182422       -0.2925087328       -1.5983631451
  11
  -21.6528672400000       4.316604730922656E-002 !gc
 C         -2.4695364086       -0.8370164657       -0.0266323536
 O         -1.1127537759       -0.7273254180       -0.4456659768
 C         -0.5202528929        0.4582013486       -0.3415624857
 O         -1.0440237754        1.4660721644        0.0444472740
 C          0.9341869409        0.3582338602       -0.7649678087
 Cl         1.8408119956       -0.2804692933        0.6322323325
 H         -2.5206562496       -1.5885399175        0.7607969647
 H         -3.0650615674       -1.1545638739       -0.8823736651
 H         -2.8246717483        0.1257103095        0.3441779242
 H          1.3323032145        1.3435416240       -1.0003844642
 H          1.0603058442       -0.3422066400       -1.5883818596
  11
  -21.6528062100000       4.046642480577649E-002 !md5
 C         -2.3291223005       -0.8305260346       -0.2447282213
 O         -0.9324256496       -0.5937730644       -0.1177880536
 C         -0.5567270715        0.6733275371       -0.0342194527
 O         -1.3051570038        1.6136105128       -0.0586314797
 C          0.9474929452        0.8431860387        0.0957948451
 Cl         1.8241041047       -0.6961376029        0.1581795189
 H         -2.7099497304       -0.3630562891       -1.1546205137
 H         -2.8617784472       -0.4165012236        0.6133435787
 H         -2.4489499389       -1.9096420313       -0.2878715387
 H          1.1628503843        1.4001839279        1.0091472548
 H          1.3132460484        1.4120266334       -0.7608928939
  11
  -21.6528061000000       4.046171473000803E-002 !md6
 C         -2.3291278506       -0.8305984598       -0.2444214445
 O         -0.9322478841       -0.5936775187       -0.1199250885
 C         -0.5566368463        0.6733219714       -0.0349912966
 O         -1.3051312115        1.6135191393       -0.0572517958
 C          0.9478766046        0.8432346760        0.0915967682
 Cl         1.8238180792       -0.6961233830        0.1604550858
 H         -2.8574686897       -0.4381349414        0.6263342399
 H         -2.4469006734       -1.9086894613       -0.3116782872
 H         -2.7163698666       -0.3427460185       -1.1407676740
 H          1.1650001459        1.4050724319        1.0015337766
 H          1.3124060345        1.4072923946       -0.7687672932
  11
  -21.6528057800000       4.044801580870508E-002 !md8
 C         -2.3297486743       -0.8306486903       -0.2420116346
 O         -0.9314084245       -0.5934786642       -0.1357161451
 C         -0.5558223477        0.6730774795       -0.0434737262
 O         -1.3054630483        1.6126598406       -0.0458133741
 C          0.9505099740        0.8430729251        0.0589283901
 Cl         1.8224510998       -0.6956129844        0.1783656983
 H         -2.4482534508       -1.9088682356       -0.3069246342
 H         -2.7284764013       -0.3436502888       -1.1338577980
 H         -2.8470201858       -0.4373639203        0.6350524500
 H          1.1806486704        1.4412050426        0.9419557175
 H          1.3061044917        1.3694420947       -0.8288142228
  11
  -21.6527756300000       3.917790793697686E-002 !gc
 C         -2.3765525362       -0.8312504498       -0.1581287807
 O         -0.9821789958       -0.6279340506       -0.3527557054
 C         -0.5395961951        0.6130033077       -0.1953963260
 O         -1.2305128064        1.5571786396        0.0746697971
 C          0.9585332714        0.7107172455       -0.4285119358
 Cl         1.8229164836       -0.5747271422        0.4444947799
 H         -2.5373845499       -1.9037598642       -0.2246532274
 H         -2.9443920328       -0.3082378139       -0.9300466900
 H         -2.6811655371       -0.4544029494        0.8198245984
 H          1.3202942011        1.6757239840       -0.0756547964
 H          1.1742308286        0.5872507902       -1.4908676750
  11
  -21.6527693600000       3.891882758843183E-002 !mtd3
 C         -2.3660693797       -0.8311225068       -0.1761303104
 O         -0.9675266098       -0.6178614273       -0.3241528824
 C         -0.5426255557        0.6290442321       -0.1691058414
 O         -1.2515014874        1.5700626513        0.0637558036
 C          0.9603042334        0.7465409947       -0.3586671887
 Cl         1.8215609115       -0.6064803686        0.4061346771
 H         -2.9161900204       -0.2595651231       -0.9260397057
 H         -2.6932959275       -0.5165523008        0.8164526237
 H         -2.5246021619       -1.8973769310       -0.3125424727
 H          1.3102472210        1.6791078963        0.0827974576
 H          1.1937584049        0.7238819608       -1.4246451442
  11
  -21.6527381500000       3.765447752850421E-002 !mtd9
 C         -2.3306488638       -0.8470070853       -0.2338402927
 O         -0.9331944187       -0.5869104104       -0.1756488699
 C         -0.5543036049        0.6765264818       -0.0625868705
 O         -1.2960063488        1.6214109018       -0.0184222539
 C          0.9563388652        0.8371248095       -0.0244056949
 Cl         1.8161353740       -0.6933584371        0.2228451689
 H         -2.4548087923       -1.7520770773       -0.8240012068
 H         -2.8515581663       -0.0059426837       -0.6946394875
 H         -2.7156527242       -1.0013534464        0.7756111518
 H          1.2215251024        1.5208312488        0.7829365721
 H          1.2870560804        1.2615461751       -0.9745084553
  11
  -21.6527274400000       3.723013840636454E-002 !mtd4
 C         -2.3254082413       -0.8546953469       -0.2479443134
 O         -0.9382011040       -0.5844915931       -0.0816099496
 C         -0.5592624761        0.6815208390       -0.0138389765
 O         -1.2906380385        1.6330436291       -0.0851647679
 C          0.9409488835        0.8384038198        0.1712251078
 Cl         1.8218587749       -0.6986301723        0.1155764674
 H         -2.4129183237       -1.6508897839       -0.9849528675
 H         -2.8442909603        0.0441004210       -0.5853634433
 H         -2.7390435397       -1.1835448303        0.7063349978
 H          1.1277835816        1.3045658974        1.1404133330
 H          1.3280116360        1.4880133478       -0.6152977384
  11
  -21.6527249500000       3.713216964861985E-002 !mtd3
 C         -2.3250718926       -0.8547021846       -0.2486237681
 O         -0.9374533830       -0.5841455945       -0.0864891355
 C         -0.5585794745        0.6819267985       -0.0204093325
 O         -1.2916437170        1.6330829502       -0.0780002348
 C          0.9425660336        0.8396080564        0.1561198415
 Cl         1.8208790977       -0.6994767814        0.1237558219
 H         -2.5106035715       -1.1459411626       -1.2833179932
 H         -2.9108548767        0.0328980266       -0.0039741613
 H         -2.5733329346       -1.6776581847        0.4191224694
 H          1.1341683355        1.3234313832        1.1156278795
 H          1.3273017195        1.4740710069       -0.6439090006
  11
  -21.6527198500000       3.693231476260181E-002 !md5
 C         -2.3254744987       -0.8576917677       -0.2426222327
 O         -0.9337147117       -0.5814522470       -0.1325871097
 C         -0.5565929166        0.6835924445       -0.0429494364
 O         -1.2930904905        1.6337888491       -0.0444283651
 C          0.9510721411        0.8420395898        0.0627801806
 Cl         1.8156103531       -0.7012396625        0.1747957547
 H         -2.9016307298        0.0544607504       -0.0788110888
 H         -2.5732008276       -1.6075823833        0.5072633941
 H         -2.5232719410       -1.2508201863       -1.2402000801
 H          1.1829423578        1.4338900181        0.9495396354
 H          1.3105451481        1.3717037320       -0.8213358000
  11
  -21.6527176200000       3.684526557675600E-002 !mtd1
 C         -2.3245245202       -0.8587793151       -0.2460323279
 O         -0.9355085406       -0.5814847655       -0.1064631941
 C         -0.5580431650        0.6840746371       -0.0285926800
 O         -1.2915553545        1.6360220020       -0.0640785988
 C          0.9464017920        0.8414442035        0.1177410220
 Cl         1.8177945754       -0.7016774783        0.1446613104
 H         -2.6227358349       -1.5049782602        0.5789746824
 H         -2.4752476936       -1.3747238414       -1.1941646925
 H         -2.8947073572        0.0715196921       -0.2265375070
 H          1.1557969889        1.3708580993        1.0487228735
 H          1.3211716485        1.4337526626       -0.7187301725
  11
  -21.6526468800000       3.418785380375491E-002 !mtd11
 C         -2.3707562423       -0.8591147194       -0.2506546312
 O         -1.0405729518       -0.6194760138        0.1958580203
 C         -0.5653879996        0.6154926674        0.1078188123
 O         -1.1729559999        1.5690346874       -0.2965622981
 C          0.8647118272        0.6921132440        0.6163897657
 Cl         1.8690593297       -0.5636092693       -0.1432604359
 H         -2.9754650050       -1.1493967272        0.6087650861
 H         -2.3380853312       -1.6735087516       -0.9733059558
 H         -2.7793259015        0.0426665210       -0.7091829284
 H          0.8849038001        0.5202703976        1.6933990125
 H          1.2861046214        1.6670949386        0.3748319798
  11
  -21.6526336900000       3.371398846078511E-002 !gc
 C         -2.3597202482       -0.8595961234       -0.2524578636
 O         -1.0184004878       -0.6119102764        0.1547200603
 C         -0.5652620054        0.6320791384        0.0894944564
 O         -1.1998670683        1.5884072573       -0.2643215977
 C          0.8769353502        0.7243421451        0.5601973240
 Cl         1.8612996338       -0.5955253464       -0.1089026556
 H         -2.3376788961       -1.5854350226       -1.0648638184
 H         -2.8270509243        0.0686160357       -0.5850085255
 H         -2.9018867851       -1.2719579025        0.5982991216
 H          0.9112029281        0.6403027837        1.6476763889
 H          1.3030328641        1.6746446691        0.2405950269
  11
  -21.6519815200000       1.690805117411123E-002 !input
 C         -2.8286774254       -0.5888788216        0.0109300545
 O         -1.5021574841       -0.8813097677        0.4414570319
 C         -0.5443411829       -0.0745521442       -0.0273424580
 O         -0.7349405129        0.8477851311       -0.7637529675
 C          0.7986444023       -0.5229354212        0.5253784326
 Cl         2.1004366623        0.5190520055       -0.0711361730
 H         -3.4670974091       -1.3353272502        0.4753492460
 H         -2.8945084047       -0.6478753782       -1.0768476123
 H         -3.1159643813        0.4151826159        0.3278253937
 H          1.0013768994       -1.5475781789        0.2122070612
 H          0.7832210702       -0.4721883000        1.6145379989
  11
  -21.6519812700000       1.690357876260096E-002 !md8
 C         -2.8281101558       -0.5914623282        0.0076553241
 O         -1.5027893920       -0.8775053263        0.4462671740
 C         -0.5454032877       -0.0693003333       -0.0207768163
 O         -0.7352102907        0.8488904466       -0.7625465661
 C          0.7958835847       -0.5087613161        0.5432569727
 Cl         2.1021536399        0.5100551840       -0.0823841793
 H         -2.8911291753       -0.6688382533       -1.0791411993
 H         -3.1155722347        0.4180087921        0.3067889886
 H         -3.4681075228       -1.3298138485        0.4827201552
 H          0.9934794526       -1.5429668667        0.2599918891
 H          0.7810728676       -0.4263581102        1.6305822840
  11
  -21.6519811800000       1.690196898406532E-002 !gc
 C         -2.8290369567       -0.5861733436        0.0147035241
 O         -1.5009891213       -0.8857814380        0.4353757250
 C         -0.5431056008       -0.0805062291       -0.0353360720
 O         -0.7346689217        0.8471752182       -0.7648574902
 C          0.8022148151       -0.5397205538        0.5029039239
 Cl         2.0979772550        0.5294504924       -0.0570920284
 H         -3.1098623241        0.4178095393        0.3374472466
 H         -3.4674734178       -1.3317833853        0.4803088158
 H         -2.9022473201       -0.6406730963       -1.0728758271
 H          1.0109231230       -1.5514501639        0.1533264282
 H          0.7863519566       -0.5280531409        1.5930451897
  11
  -21.6519350800000       1.609723214713851E-002 !mtd7
 C         -2.8119987720       -0.5703921364        0.0715943896
 O         -1.4573374267       -0.9610237939        0.2776556324
 C         -0.5277205785       -0.1161188819       -0.1778126162
 O         -0.7639780306        0.9237999360       -0.7195705949
 C          0.8528495230       -0.6962110982        0.0816798825
 Cl         2.0569885835        0.6003653789        0.1984243680
 H         -2.9924656332        0.4118300312        0.5116795228
 H         -3.4212468158       -1.3277629203        0.5570951085
 H         -3.0336245379       -0.5249687881       -0.9961306666
 H          1.1348231352       -1.3401308424       -0.7532633980
 H          0.8545237465       -1.2682968235        1.0083951880
  11
  -21.6519325500000       1.605419374447353E-002 !md3
 C         -2.8053313456       -0.5723030751        0.0788493218
 O         -1.4475452237       -0.9711361089        0.2445837443
 C         -0.5261561709       -0.1118614975       -0.1998461129
 O         -0.7721825927        0.9457991534       -0.7018234847
 C          0.8594429443       -0.6995738903        0.0108076809
 Cl         2.0499816946        0.5954732961        0.2399193128
 H         -3.0343852201       -0.4422823261       -0.9803080368
 H         -2.9871810711        0.3706462384        0.5973321100
 H         -3.4078789524       -1.3687696239        0.5067153094
 H          1.1492704510       -1.2648137218       -0.8767851102
 H          0.8667801745       -1.3486113069        0.8851853320
  11
  -21.6517850000000       1.373343621542016E-002 !md3
 C         -2.8443271986       -0.6123283272        0.0268866059
 O         -1.4993704327       -0.8823269654        0.4165719812
 C         -0.5438203449       -0.0702681855       -0.0450405083
 O         -0.7228393005        0.8705774258       -0.7608274975
 C          0.7981869266       -0.5452542226        0.4888300496
 Cl         2.1006224154        0.5282355536       -0.0469156449
 H         -3.4287545980       -0.4266670406        0.9276704839
 H         -3.2297192228       -1.4894701218       -0.4921233055
 H         -2.8744212158        0.2589561997       -0.6290713215
 H          1.0037224713       -1.5509397405        0.1206064895
 H          0.7790712484       -0.5539929151        1.5789111663
  11
  -21.6517819100000       1.368860365990701E-002 !md7
 C         -2.8392350531       -0.6292715824        0.0060646950
 O         -1.5021176392       -0.8584628464        0.4458097515
 C         -0.5505137691       -0.0349721794       -0.0034204231
 O         -0.7260873772        0.8806746658       -0.7520287703
 C          0.7802406526       -0.4519482551        0.6021587514
 Cl         2.1111394572        0.4678771656       -0.1181548735
 H         -3.1855640002       -1.5253389200       -0.5081711486
 H         -2.8678886506        0.2281789961       -0.6679263014
 H         -3.4580997770       -0.4411402545        0.8830350009
 H          0.9515493135       -1.5140473707        0.4274335593
 H          0.7680781083       -0.2563761557        1.6753086076
  11
  -21.6517773500000       1.362271021124105E-002 !mtd6
 C         -2.8407046463       -0.5991401181        0.0535170298
 O         -1.4840744225       -0.9172323617        0.3557334456
 C         -0.5356488778       -0.0994730016       -0.1097979683
 O         -0.7310564367        0.8900527217       -0.7522005702
 C          0.8236298232       -0.6436850742        0.2995876558
 Cl         2.0820752281        0.5815953366        0.0687939612
 H         -2.8917299013        0.3566274326       -0.4702111955
 H         -3.3896925514       -0.5466215397        0.9928953414
 H         -3.2495574195       -1.3925489644       -0.5722794729
 H          1.0691991356       -1.5052099900       -0.3234353965
 H          0.8079618844       -0.9425058202        1.3472611308
  11
  -21.6517645200000       1.343900942282548E-002 !mtd6
 C         -2.8032107957       -0.6799878227       -0.0421463497
 O         -1.4810278318       -0.8123931327        0.4748423691
 C         -0.5643678996        0.0704782154        0.0712225935
 O         -0.7573581449        0.9595748740       -0.7057187581
 C          0.7512057762       -0.2233966472        0.7739302340
 Cl         2.1170405379        0.2985955088       -0.2300929940
 H         -3.0952894357       -1.6427859883       -0.4590178671
 H         -2.8262573964        0.0917953911       -0.8130702556
 H         -3.4703692499       -0.4113479222        0.7771609502
 H          0.8443114944       -1.2895551220        0.9750343709
 H          0.7915271361        0.3380241086        1.7090582050
  11
  -21.6517585000000       1.335367056539408E-002 !gc
 C         -2.8034176540       -0.6804882983       -0.0425360780
 O         -1.4815575232       -0.8117246415        0.4756979868
 C         -0.5641657665        0.0696482201        0.0703321933
 O         -0.7573097146        0.9597378254       -0.7054316298
 C          0.7512897167       -0.2243008048        0.7732210182
 Cl         2.1172251725        0.2991371667       -0.2298083161
 H         -3.4887987263       -0.6066349532        0.8009322734
 H         -3.0314305888       -1.5693853275       -0.6305724577
 H         -2.8715560755        0.2108166609       -0.6680470104
 H          0.8448470346       -1.2905808994        0.9735457231
 H          0.7910618977        0.3362935384        1.7088600826
  11
  -21.6438236800000       3.013074489826640E-006 !mtd10
 C         -1.4861194711       -1.4509148817        0.2515196916
 O         -1.5759810305       -0.1067996542       -0.1896851219
 C         -0.6356340948        0.7992333018        0.0608881964
 O         -0.7810022215        1.9308485693       -0.3074749473
 C          0.6166844019        0.3662972314        0.8198241625
 Cl         1.6558947353       -0.6019826860       -0.2688524711
 H         -2.3531476708       -1.9508604726       -0.1765604598
 H         -1.5388069141       -1.5119772894        1.3414539881
 H         -0.5741922924       -1.9325447261       -0.1040382739
 H          0.3921569183       -0.2406503901        1.6959681482
 H          1.1781347358        1.2567843061        1.0993630346
  11
  -21.6438236800000       3.013074489826640E-006 !mtd10
 C         -1.4742521180       -1.4554169366       -0.2940502298
 O         -1.5833687905       -0.1042067996        0.1204025183
 C         -0.6319950598        0.7977292537       -0.1017340733
 O         -0.7930634304        1.9350509028        0.2417095432
 C          0.6525692978        0.3530806618       -0.7973773268
 Cl         1.6423799864       -0.5967282818        0.3519696285
 H         -0.5788700186       -1.9305004872        0.1092225389
 H         -1.4789330805       -1.5345232669       -1.3841160992
 H         -2.3593671951       -1.9488106654        0.1037081616
 H          1.2261034315        1.2391259622       -1.0662103483
 H          0.4669047764       -0.2681573449       -1.6726058594
  11
  -21.6438236600000       3.013010722098507E-006 !mtd10
 C         -1.4737005726       -1.4551409324       -0.2947238735
 O         -1.5827267697       -0.1043486498        0.1210347388
 C         -0.6319735412        0.7981071322       -0.1016498532
 O         -0.7935003655        1.9353304838        0.2418927604
 C          0.6528702966        0.3539515937       -0.7970065261
 Cl         1.6419134146       -0.5974218287        0.3517254149
 H         -2.3593632412       -1.9485869332        0.1016891509
 H         -0.5789739605       -1.9309224383        0.1090172642
 H         -1.4772579738       -1.5332347461       -1.3848316996
 H          1.2266537179        1.2402222748       -1.0646193395
 H          0.4675194791       -0.2663057019       -1.6730056988
  11
  -21.6438236500000       3.012978838751859E-006 !mtd10
 C         -1.4865542278       -1.4510120324        0.2514203558
 O         -1.5762126187       -0.1067935637       -0.1894014915
 C         -0.6356675852        0.7991013857        0.0610081811
 O         -0.7808367049        1.9306955797       -0.3075457527
 C          0.6166320441        0.3661842972        0.8199434887
 Cl         1.6561489765       -0.6017779971       -0.2689875253
 H         -1.5402921452       -1.5122380653        1.3412655863
 H         -0.5742780412       -1.9326528214       -0.1034588566
 H         -2.3533999615       -1.9509768410       -0.1774289340
 H          0.3923318586       -0.2408251377        1.6960776472
 H          1.1780928981        1.2566517929        1.0994350939
  11
  -21.6438235400000       3.012628144103456E-006 !mtd10
 C         -1.4752907157       -1.4555472785       -0.2939923226
 O         -1.5835264238       -0.1043224090        0.1207469472
 C         -0.6319997214        0.7972994993       -0.1021721645
 O         -0.7923874516        1.9345767043        0.2417133409
 C          0.6521204130        0.3520648116       -0.7980789033
 Cl         1.6428035195       -0.5958156667        0.3522294069
 H         -1.4850220400       -1.5345828898       -1.3840066948
 H         -2.3582066238       -1.9495489233        0.1078379837
 H         -0.5777901681       -1.9300033116        0.1051317119
 H          1.2253634534        1.2378408797       -1.0684595433
 H          0.4661489210       -0.2705299591       -1.6722793606
  11
  -21.6438235400000       3.012628144103456E-006 !mtd10
 C         -1.4875983294       -1.4511367499        0.2519515746
 O         -1.5767040753       -0.1069507618       -0.1891423109
 C         -0.6354685235        0.7984530478        0.0608614320
 O         -0.7799193270        1.9299693987       -0.3081295436
 C          0.6161370142        0.3649689828        0.8206946568
 Cl         1.6565589313       -0.6005716156       -0.2693405131
 H         -0.5759430549       -1.9332041160       -0.1036467458
 H         -2.3548347775       -1.9505575723       -0.1762175201
 H         -1.5403237342       -1.5123754027        1.3418295456
 H          0.3913127691       -0.2438247312        1.6955968999
 H          1.1770315447        1.2552040125        1.1023643768
