! r2scan-3c def2/J RI DEFGRID2 scfconv6 printgap
%output
    printlevel normal
end
%cpcm
    smd true
    smdsolvent "water"
end
* xyz 0 1
C -2.2344760323 -0.8002022811 -0.1689519362
C -1.4583944432 0.5066499721 -0.2893744941
C -0.2798652322 0.6143403382 0.6972569312
C 1.0276243375 0.1535519867 0.1120175882
C 1.9841832174 1.0153691958 -0.1979750301
C 1.1909191263 -1.3183509352 -0.1166647
H -2.6511212502 -0.9004288357 0.831192697
H -1.5991080556 -1.6593798202 -0.3620516154
H -3.0549357406 -0.8157594522 -0.8832756149
H -1.0835347081 0.6227341714 -1.3085576295
H -2.1479728691 1.3319244289 -0.1005054272
H -0.1696558729 1.6561127195 1.0029443996
H -0.5088341121 0.0270460107 1.5893414888
H 2.9223629272 0.6979216658 -0.6219789818
H 1.8701877771 2.0751907847 -0.0425693098
H 0.5793390971 -1.6372106247 -0.9595783894
H 2.2267654798 -1.5613659078 -0.3388277083
H 0.8757378229 -1.8788371875 0.7611845748
*
