! pbe def2-sv(p) def2/J RI DEFGRID1 loosescf d4 GCP(DFT/SV(P)) printgap
%output
    printlevel normal
end
* xyz 0 1
C -1.7108771884 0.8340753031 -0.9315509891
C -1.8369132263 -0.0580941306 0.3015841795
C -2.2240707651 -1.4818744858 -0.0912249172
C -0.5343171317 -0.0580078486 1.1103653874
O 0.5605895421 -0.5562625791 0.3322481963
C 1.5229909931 0.2773602006 -0.0402332083
O 1.5577249437 1.4527476536 0.2639687528
C 2.5563997863 -0.4173503978 -0.8768655777
H -1.373936334 1.8306696543 -0.6531251807
H -2.6699178434 0.9189699982 -1.4348739244
H -0.9920568308 0.4139429652 -1.6323687027
H -2.6072807955 0.3560797927 0.9595625156
H -3.1416006024 -1.4744319426 -0.6729709345
H -2.3786873731 -2.0935109774 0.7936959603
H -1.4353569775 -1.9313593724 -0.6891639341
H -0.2883008997 0.9538770739 1.4474533401
H -0.6187299486 -0.7255243338 1.9708290715
H 2.4551795886 -0.0777972606 -1.9053389609
H 2.4139640359 -1.4912515514 -0.8277944347
H 3.5469177151 -0.1389201093 -0.5290418072
*
