! pbe def2-sv(p) def2/J RI DEFGRID1 loosescf d4 GCP(DFT/SV(P)) printgap
%output
    printlevel normal
end
* xyz 0 1
C 1.9001473382 -0.3462372904 0.8621202859
C 1.5092567595 0.2816367122 -0.4702300196
C 0.2406297754 -0.2946376841 -1.1046724416
C -1.0746818059 0.0024391352 -0.3569593122
H -1.8846863764 0.0023789 -1.108507141
C -1.422446408 -1.0593153068 0.6890240578
O -0.9898288137 1.2977206242 0.2129466479
H 1.2172796347 -0.0363037465 1.647815013
H 2.9002080191 -0.0236985599 1.1434185357
H 1.8956684714 -1.4318048805 0.793313693
H 1.3736027008 1.355580585 -0.3358000757
H 2.3240721869 0.1326439573 -1.1828570577
H 0.1593150267 0.1342121854 -2.1055885581
H 0.3392854919 -1.3756879717 -1.2107115781
H -2.3891340365 -0.8403434746 1.1388080979
H -1.4794167694 -2.0344474006 0.2142276087
H -0.6737425568 -1.0923705602 1.4732849043
H -1.8089254026 1.4854626658 0.6892375454
*
