  13
        -16.68887182
 C         -2.3894099162       -0.0951862819        0.0000150391
 C         -0.9114068437       -0.4635760698       -0.0000375130
 C         -0.0227396466        0.7774502197        0.0000158747
 C          1.4332745666        0.4646226202       -0.0000141090
 O          1.9227707759       -0.6394613204        0.0000217565
 H         -2.6377245188        0.4894977462       -0.8825059245
 H         -3.0020791752       -0.9925730510        0.0000317878
 H         -2.6376690378        0.4894866586        0.8825609396
 H         -0.6774456242       -1.0678732781       -0.8787185378
 H         -0.6773802980       -1.0678083313        0.8786583086
 H         -0.2249732938        1.3996583277       -0.8760657837
 H         -0.2249383262        1.3996849967        0.8760978497
 H          2.0861923956        1.3579207398       -0.0001572264
  13
        -16.68877803
 C         -1.8504630373       -0.7595811110       -0.1228000616
 C         -1.3271835759        0.6047318045        0.3116322836
 C          0.0733858238        0.8667373948       -0.2459546710
 C          1.0909238035       -0.0510294922        0.3391399020
 O          2.0024255490       -0.5697091683       -0.2604981766
 H         -1.1881887946       -1.5512122756        0.2227234712
 H         -2.8421062164       -0.9354848688        0.2856208771
 H         -1.9099636237       -0.8176970311       -1.2070951775
 H         -1.2979130052        0.6561971734        1.4014075893
 H         -2.0022413260        1.3830049247       -0.0451504739
 H          0.0900651192        0.7872109274       -1.3338976256
 H          0.3867433646        1.8786869889        0.0272155729
 H          0.9695368581       -0.2323736672        1.4236048789
  13
        -16.68842551
 C         -1.7149967012       -0.5878388484        0.5379942061
 C         -1.0795809400        0.0641568983       -0.6850111377
 C          0.0285453611        1.0403887488       -0.2939789468
 C          1.2746145911        0.3799707002        0.1904745242
 O          1.5019310677       -0.8055388779        0.1982387696
 H         -2.4983313674       -1.2777638555        0.2355365053
 H         -0.9681995422       -1.1446361634        1.0994858252
 H         -2.1517081514        0.1644486176        1.1912171154
 H         -1.8441019125        0.5973092226       -1.2514974729
 H         -0.6562100193       -0.7108328308       -1.3267061111
 H          0.3213180952        1.6560071970       -1.1492512715
 H         -0.3127600935        1.7270940652        0.4841500545
 H          2.0412043876        1.0900707572        0.5555910585
  13
        -16.68826811
 C         -2.4989999063        0.1016772158        0.1618275174
 C         -1.1584584124       -0.3944888476       -0.3665011922
 C          0.0032421815        0.4011746671        0.2348100063
 C          1.3196271423        0.0062292532       -0.3378519984
 O          2.3490968981       -0.1186588896        0.2819294003
 H         -2.5407306460        0.0095958727        1.2442351631
 H         -2.6512295328        1.1455565713       -0.1008217388
 H         -3.3107601950       -0.4822907937       -0.2633405555
 H         -1.1362332439       -0.3007390754       -1.4536336716
 H         -1.0371423210       -1.4503681108       -0.1181361689
 H         -0.1318984139        1.4599216889       -0.0082554976
 H          0.0309627755        0.3054835408        1.3212636600
 H          1.3082005818       -0.1691392556       -1.4297029807
