! r2scan-3c def2/J RI DEFGRID2 scfconv6 printgap
%output
    printlevel normal
end
* xyz 0 1
C 2.2524862581 0.5341185216 0.295802406
C 1.3391835298 -0.6865430396 0.2147663506
C 0.2783512416 -0.5485764236 -0.8848427065
C -1.0508263851 0.0853173893 -0.4283634372
H -1.6263917783 0.3448979522 -1.3256928205
C -1.8789353126 -0.8783261867 0.4224127039
O -0.8694739465 1.3247905216 0.2343485578
H 2.855322916 0.6111701974 -0.6066728499
H 2.9233900941 0.4540150366 1.1482598769
H 1.6735281114 1.4489429727 0.3903427944
H 1.9515894219 -1.5662341175 0.0073657812
H 0.8604335883 -0.8527187564 1.181579165
H 0.6921765852 0.0573484758 -1.692776282
H 0.0371190607 -1.5295140078 -1.2960617837
H -1.3237430581 -1.1953550948 1.3022875418
H -2.7935850979 -0.3872869234 0.7460305332
H -2.1406134687 -1.7571320766 -0.159035021
H -0.5121367565 1.1460478109 1.1154082402
*
