  19
        -26.27410333
 C         -2.5168818859       -0.2933329792       -0.3756001922
 C         -2.0206251990        0.9951255340       -0.4852106798
 C         -0.7392967311        1.2849019845       -0.0528179308
 C          0.0624768398        0.2939379995        0.5017418602
 C         -0.4445522210       -0.9962142558        0.6068313350
 C         -1.7261894282       -1.2883436996        0.1720141686
 C          1.4757534555        0.5961415654        0.9095324211
 C          2.4172400723        0.4424956398       -0.2980416253
 O          2.4938577284       -0.8805173662       -0.7624027864
 H         -3.5171978716       -0.5196867447       -0.7136446685
 H         -2.6344485069        1.7762662270       -0.9094218607
 H         -0.3553005949        2.2915442301       -0.1404287678
 H          0.1656701474       -1.7755978244        1.0421657667
 H         -2.1073923574       -2.2950660668        0.2624413784
 H          1.5555728264        1.6183172068        1.2816596165
 H          1.7999915803       -0.0912617837        1.6926076721
 H          2.0850107204        1.1143723920       -1.1041389292
 H          3.4366768378        0.7148082052       -0.0152105044
 H          1.5984900010       -1.1868794361       -0.9536922528
  19
        -26.27273732
 C         -2.7618331482        0.0526336736        0.3862663418
 C         -2.1039147670        1.1763707571       -0.0840975040
 C         -0.7749221020        1.0963362261       -0.4592902162
 C         -0.0857504387       -0.1068063474       -0.3730030365
 C         -0.7540265569       -1.2276505316        0.1025412423
 C         -2.0834138438       -1.1502374583        0.4785565095
 C          1.3669457996       -0.1809135739       -0.7425850833
 C          2.2443523098        0.1638584460        0.4708909342
 O          3.6165442153        0.1778341682        0.1647354716
 H         -3.7997879306        0.1138338088        0.6782354607
 H         -2.6283308746        2.1177971685       -0.1596012949
 H         -0.2652946546        1.9751896233       -0.8276483359
 H         -0.2306285819       -2.1708920141        0.1742874643
 H         -2.5911616555       -2.0312232387        0.8434925705
 H          1.6168719992       -1.1882414562       -1.0876166646
 H          1.5932798986        0.5243691073       -1.5445594387
 H          2.0117127516        1.1713810747        0.8232395474
 H          2.0339998730       -0.5435289833        1.2869078102
 H          3.8693140119       -0.6893853509       -0.1714489235
  19
        -26.27218541
 C         -2.5358498206       -0.0569701015        0.4191682104
 C         -1.8882591435        1.1105966378        0.0564082595
 C         -0.5908852607        1.0649380144       -0.4231697385
 C          0.0755879462       -0.1462551135       -0.5465336730
 C         -0.5827101154       -1.3131392494       -0.1782550249
 C         -1.8794716382       -1.2703879326        0.2995314490
 C          1.5002720802       -0.1994052905       -1.0203554951
 C          2.4700688368       -0.2645381825        0.1704042527
 O          2.3791201282        0.8498524669        1.0205357863
 H         -3.5484026933       -0.0224291190        0.7934816205
 H         -2.3940695408        2.0609213983        0.1474562537
 H         -0.0942426268        1.9824812124       -0.7070429397
 H         -0.0733258883       -2.2622944641       -0.2698273889
 H         -2.3798556868       -2.1858460377        0.5802509096
 H          1.6613689149       -1.0841478883       -1.6388795013
 H          1.7307577495        0.6862752095       -1.6189871246
 H          2.2342364419       -1.1270588157        0.7977968175
 H          3.4986484607       -0.3764402657       -0.2072532924
 H          2.4884234373        1.6505268933        0.4949777373
  19
        -26.27106189
 C         -2.6304334790       -0.1163740391       -0.2944887747
 C         -1.7229303276        0.7392640171       -0.8950924409
 C         -0.3938865663        0.7277126690       -0.5115080116
 C          0.0492212442       -0.1468293298        0.4737068836
 C         -0.8675890045       -1.0059451613        1.0658790918
 C         -2.1986980989       -0.9900955662        0.6880119658
 C          1.4929408236       -0.1665096789        0.9004023404
 C          2.4781945374       -0.2518658407       -0.2749243742
 O          2.6549594225        0.9641326943       -0.9601080507
 H         -3.6688289725       -0.1040261142       -0.5918640015
 H         -2.0518382290        1.4211471811       -1.6658724615
 H          0.3099152689        1.3900796866       -0.9915715868
 H         -0.5374570477       -1.6937163946        1.8322613485
 H         -2.8992942767       -1.6633605277        1.1605835271
 H          1.7144692758        0.7397811289        1.4755275660
 H          1.6631078160       -1.0228863963        1.5556028204
 H          3.4480476231       -0.6155080140        0.0971217150
 H          2.1089741323       -0.9569963637       -1.0229069396
 H          2.9708840282        1.6279062936       -0.3361915119
  19
        -26.27056898
 C         -2.7823629482       -0.1245508300       -0.1833401306
 C         -2.1280072526        1.0724679532       -0.4185496638
 C         -0.7764872330        1.1896462368       -0.1463869996
 C         -0.0606289738        0.1152517353        0.3663148885
 C         -0.7264599478       -1.0818439701        0.5969884302
 C         -2.0779653440       -1.2019523351        0.3259072645
 C          1.4129001595        0.2328251848        0.6253309782
 C          2.2100339707       -0.1482694086       -0.6249365380
 O          3.5841844378       -0.0191301218       -0.3326901758
 H         -3.8377040019       -0.2166907862       -0.3938585425
 H         -2.6726559181        1.9177271054       -0.8137796120
 H         -0.2704085930        2.1271133391       -0.3285431432
 H         -0.1811018903       -1.9248552007        0.9971550890
 H         -2.5833488394       -2.1382728736        0.5134861509
 H          1.6776661261        1.2550837149        0.8988543647
 H          1.7173172525       -0.4280539919        1.4379732583
 H          1.9693775349       -1.1823406943       -0.9130184128
 H          1.9259857177        0.5128333391       -1.4570807899
 H          4.0974652196       -0.2573129226       -1.1109970388
  19
        -26.27020239
 C         -2.8402394384        0.1020295302        0.0160600120
 C         -1.9932641877        1.0407229215       -0.5433208299
 C         -0.6192122196        0.8671922189       -0.4923182072
 C         -0.0709241293       -0.2500763649        0.1216988076
 C         -0.9342811559       -1.1878552120        0.6823018738
 C         -2.3043326097       -1.0172948294        0.6310590119
 C          1.4109457440       -0.5071033353        0.2114264079
 C          2.3125548312        0.5948827018       -0.3452434062
 O          3.6768266638        0.2553951856       -0.2510002152
 H         -3.9104707902        0.2398568160       -0.0262401019
 H         -2.4012083875        1.9172805840       -1.0253992914
 H          0.0189340432        1.6137184039       -0.9381797151
 H         -0.5211324693       -2.0635725340        1.1635547707
 H         -2.9555332836       -1.7582653721        1.0713959719
 H          1.6695110050       -0.6716975475        1.2643032598
 H          1.6395433444       -1.4356474579       -0.3214420773
 H          2.1297336167        0.7374640004       -1.4124281057
 H          2.1190404363        1.5422603716        0.1792894001
 H          3.8917528841        0.0847652764        0.6729765317
  19
        -26.26998685
 C         -2.5507793800       -0.2939407123       -0.3363226927
 C         -2.1034627000        1.0151929274       -0.3811568993
 C         -0.8101239097        1.3194964515        0.0058768587
 C          0.0493994376        0.3221799996        0.4477876351
 C         -0.4072643075       -0.9886747117        0.4878591096
 C         -1.6983611773       -1.2953450580        0.0970510903
 C          1.4659455855        0.6464190195        0.8292660008
 C          2.4146623833        0.4148177958       -0.3516002363
 O          2.5285700842       -0.9729797591       -0.5754184909
 H         -3.5601581596       -0.5324717852       -0.6386472123
 H         -2.7632959599        1.8015847398       -0.7189548557
 H         -0.4651066818        2.3438576067       -0.0320674535
 H          0.2618262226       -1.7690995535        0.8168401504
 H         -2.0419143047       -2.3191627871        0.1313882977
 H          1.5463654483        1.6896567740        1.1385888142
 H          1.7907235437        0.0048332027        1.6493778834
 H          2.0189738368        0.9208237645       -1.2439677857
 H          3.4014431883        0.8434390944       -0.1176670134
 H          3.0498018942       -1.1253380152       -1.3694192115
  19
        -26.26991099
 C         -2.6114408622        0.1495293281        0.1006602170
 C         -1.7444212702        0.9971866589       -0.5647187207
 C         -0.3995722204        0.6843610627       -0.6702334765
 C          0.0996874672       -0.4806138574       -0.1047888376
 C         -0.7801445068       -1.3238468349        0.5664481953
 C         -2.1240378230       -1.0161389356        0.6669260878
 C          1.5511716124       -0.8807445065       -0.2045371689
 C          2.5346306626        0.2711512899       -0.4279482977
 O          2.4095011481        1.3087409371        0.5132978958
 H         -3.6600958519        0.3954619081        0.1808279802
 H         -2.1151879562        1.9108830551       -1.0061216679
 H          0.2590576565        1.3648080911       -1.1851488020
 H         -0.4057125447       -2.2350240001        1.0132616139
 H         -2.7911933443       -1.6854223192        1.1907172171
 H          1.8286304396       -1.4096410038        0.7133747160
 H          1.6686275272       -1.5883446254       -1.0313888163
 H          3.5581294430       -0.1361573611       -0.4139355723
 H          2.3748799602        0.7366839473       -1.4026820629
 H          2.4351278027        0.9282386280        1.3982496496
  19
        -26.26920973
 C         -2.6862819572       -0.3040837765        0.0776850476
 C         -2.3294392502        1.0333277689        0.0895937962
 C         -0.9975044142        1.3963294239        0.0109040321
 C          0.0047389963        0.4366699814       -0.0854832868
 C         -0.3681550662       -0.9019656704       -0.0982163734
 C         -1.7001367189       -1.2696096995       -0.0147544396
 C          1.4410368919        0.8793420368       -0.1879018952
 C          2.4519925077       -0.0229514833        0.5376378487
 O          3.0321080160       -0.9999979614       -0.2932072696
 H         -3.7250615248       -0.5917973706        0.1415427345
 H         -3.0905221041        1.7962815803        0.1639978689
 H         -0.7279844376        2.4430832066        0.0241420477
 H          0.3776720599       -1.6809135466       -0.1666177973
 H         -1.9666572810       -2.3165793474       -0.0236197370
 H          1.7313849400        0.9248418135       -1.2428478309
 H          1.5206206091        1.8918892970        0.2111135849
 H          3.2962137804        0.5758008366        0.8870927835
 H          1.9756727320       -0.4888028599        1.4127007839
 H          2.3341303966       -1.5408591060       -0.6793175936
  19
        -26.26898459
 C         -2.7055661392       -0.2452747789        0.2616800390
 C         -2.2729867956        1.0685937697        0.2337510135
 C         -0.9473436027        1.3580367601       -0.0421155153
 C         -0.0401364708        0.3393718068       -0.2964821062
 C         -0.4838601965       -0.9780552163       -0.2656512747
 C         -1.8064046718       -1.2690639084        0.0119356772
 C          1.4056735060        0.6356319078       -0.5798472678
 C          2.3354738421        0.1154184824        0.5419179475
 O          3.2360356589       -0.8735901631        0.1044899484
 H         -3.7394101649       -0.4718232147        0.4770382421
 H         -2.9687753061        1.8719580298        0.4279982808
 H         -0.6158151224        2.3868290664       -0.0619490900
 H          0.2184028362       -1.7762297155       -0.4580712209
 H         -2.1383588501       -2.2969059961        0.0321943463
 H          1.6918307573        0.1391608337       -1.5113079679
 H          1.5431102198        1.7097336190       -0.7135081952
 H          2.8842562853        0.9531867850        0.9937786414
 H          1.7451875328       -0.3645159689        1.3258943017
 H          3.8171589498       -0.4947396738       -0.5642111134
  19
        -26.26837510
 C         -2.8303846528       -0.1737431712        0.1392714530
 C         -2.3348550261        1.1139411806        0.0184984528
 C         -0.9740473901        1.3234140061       -0.0980672474
 C         -0.0791922648        0.2566165331       -0.0994539533
 C         -0.5884894066       -1.0294465063        0.0191514530
 C         -1.9524481813       -1.2418578938        0.1392128376
 C          1.3874921973        0.5548572037       -0.2479839713
 C          2.3333118585       -0.5944243167        0.0847495904
 O          3.6510543748       -0.0876774168        0.0259195663
 H         -3.8930483943       -0.3420530865        0.2326149959
 H         -3.0110740330        1.9564659053        0.0168537303
 H         -0.5924282014        2.3304953151       -0.1906935359
 H          0.0744491205       -1.8808015711        0.0186015364
 H         -2.3286517116       -2.2504701071        0.2323476224
 H          1.5877056167        0.8737476363       -1.2752320766
 H          1.6518234836        1.3948914667        0.3992115001
 H          2.1152024213       -0.9779140426        1.0924082249
 H          2.2121811792       -1.4137402023       -0.6380642899
 H          4.2714481874       -0.7937082177        0.2322518762
  19
        -26.26669602
 C         -2.6179017273       -0.1443996723       -0.2910758863
 C         -1.7527128382        0.7742019810       -0.8560580049
 C         -0.4204223165        0.8082135841       -0.4786218367
 C          0.0706912469       -0.0802140758        0.4665026778
 C         -0.8090901217       -1.0024111744        1.0257542525
 C         -2.1398087824       -1.0356289143        0.6548158971
 C          1.5026072956       -0.0866508276        0.9395190639
 C          2.5008218217        0.6406829018        0.0438614521
 O          2.5333786695        0.0082839415       -1.2166347270
 H         -3.6565040677       -0.1690982925       -0.5868146510
 H         -2.1149137445        1.4717147082       -1.5977520161
 H          0.2320521773        1.5312552265       -0.9412299004
 H         -0.4417756013       -1.7037437159        1.7622671840
 H         -2.8052308566       -1.7603754052        1.1015053095
 H          1.5482193383        0.3659997118        1.9351960484
 H          1.8286367684       -1.1251475797        1.0308816201
 H          2.2257746666        1.7005799699       -0.0552184718
 H          3.4934436157        0.5963097353        0.5185367342
 H          3.1604538181        0.4649875806       -1.7857838112
