  19
        -26.27410333
 C         -2.5168818859       -0.2933329792       -0.3756001922
 C         -2.0206251990        0.9951255340       -0.4852106798
 C         -0.7392967311        1.2849019845       -0.0528179308
 C          0.0624768398        0.2939379995        0.5017418602
 C         -0.4445522210       -0.9962142558        0.6068313350
 C         -1.7261894282       -1.2883436996        0.1720141686
 C          1.4757534555        0.5961415654        0.9095324211
 C          2.4172400723        0.4424956398       -0.2980416253
 O          2.4938577284       -0.8805173662       -0.7624027864
 H         -3.5171978716       -0.5196867447       -0.7136446685
 H         -2.6344485069        1.7762662270       -0.9094218607
 H         -0.3553005949        2.2915442301       -0.1404287678
 H          0.1656701474       -1.7755978244        1.0421657667
 H         -2.1073923574       -2.2950660668        0.2624413784
 H          1.5555728264        1.6183172068        1.2816596165
 H          1.7999915803       -0.0912617837        1.6926076721
 H          2.0850107204        1.1143723920       -1.1041389292
 H          3.4366768378        0.7148082052       -0.0152105044
 H          1.5984900010       -1.1868794361       -0.9536922528
