! r2scan-3c def2/J RI DEFGRID2 scfconv6 printgap
%output
    printlevel normal
end
* xyz 0 1
C -1.9188131627 1.2315951172 0.2242731161
C -1.0842413968 -0.0465696038 0.1528485869
C -1.9858718001 -1.2419011028 -0.1531230896
C 0.0376496523 0.0815971365 -0.8966956386
C 1.469679184 0.0542846626 -0.341259435
C 1.7339854798 1.211847822 0.61948191
C 1.7982637184 -1.2846025005 0.3168206531
H -2.6853104205 1.1450695359 0.9917229762
H -1.2912905544 2.087040494 0.4621857316
H -2.4099217829 1.4170960701 -0.7290674886
H -0.6406490834 -0.2103599579 1.1388799859
H -1.4088823963 -2.163635601 -0.1633744997
H -2.7658234424 -1.3347112339 0.5999201731
H -2.4614975697 -1.1200016557 -1.1242946151
H -0.0929793544 1.0151909797 -1.4479621709
H -0.0537514239 -0.7306798682 -1.6208413199
H 2.1416359671 0.1750698232 -1.2002334497
H 2.7765257842 1.2123355554 0.9300414473
H 1.5201144471 2.1629498822 0.1370461791
H 1.1159018809 1.1305435053 1.5099713485
H 1.6347119229 -2.1017892655 -0.3821232485
H 2.8396194469 -1.3048502786 0.6302059359
H 1.1779878195 -1.4537665869 1.1933133896
*
