  12
        -15.87964065
 C         -1.1589746211       -0.7575464913       -0.0000050771
 C          0.0765727175       -1.3824457492        0.0000132567
 C          1.2355464105       -0.6249207713       -0.0000076081
 C          1.1589815949        0.7575572802        0.0000063900
 C         -0.0765801695        1.3824609131        0.0000044897
 C         -1.2355426552        0.6248944818       -0.0000018516
 H         -2.0633860278       -1.3486836999       -0.0000261697
 H          0.1363679442       -2.4612528658       -0.0000523407
 H          2.1997279912       -1.1126159762        0.0000222821
 H          2.0633992949        1.3486959555       -0.0000482620
 H         -0.1364510548        2.4612836850       -0.0000483239
 H         -2.1996972009        1.1125769140        0.0000384169
