! r2scan-3c def2/J RI DEFGRID2 scfconv6 printgap
%output
    printlevel normal
end
* xyz 0 1
C 2.1380416298 1.3219769421 -1.0414096026
C 2.173362533 0.8364366719 0.4027466421
C 1.3848400727 -0.464835294 0.655198405
H 1.4383721011 -0.6574022064 1.7341722446
C 2.0189340301 -1.6612568617 -0.0519484298
C -0.0712943602 -0.2583887525 0.3130326226
C -0.9033027466 0.3396341481 1.2544601656
C -2.2359044827 0.5844678078 0.978933829
C -2.7650478059 0.232443906 -0.2514009018
C -1.9493199077 -0.3640003063 -1.1964081505
C -0.6147087826 -0.6059530395 -0.9172620379
H 2.6652756014 2.2694955259 -1.1245321135
H 2.6177656476 0.6106364771 -1.7080204893
H 1.1118772211 1.4703100745 -1.3703030555
H 3.2107628538 0.6758144048 0.7042144808
H 1.7570090337 1.6172765584 1.0436783129
H 1.4237955929 -2.5556153921 0.1180672284
H 2.1016004179 -1.5002203428 -1.1222791256
H 3.018346448 -1.8313860108 0.3421589208
H -0.4991054978 0.6148416796 2.2188448734
H -2.8635868462 1.0489706057 1.7254404115
H -3.8055546783 0.4208475356 -0.4704933331
H -2.3529709443 -0.6422306715 -2.1590941843
H 0.0006676765 -1.0709229587 -1.6710305477
*
