! r2scan-3c def2/J RI DEFGRID2 scfconv6 printgap
%output
    printlevel normal
end
%cpcm
    smd true
    smdsolvent "water"
end
* xyz 0 1
C -4.3506362227 -0.6834731811 -0.0095254275
O -3.4488840441 0.4112251256 0.0108633713
C -2.1202607642 0.1710569013 0.0047745324
C -1.5379380806 -1.0966783274 -0.0205135544
C -0.1639189707 -1.2176859539 -0.025029847
C 0.6561967618 -0.0911629173 -0.0038881793
C 0.0704155504 1.1780721549 0.0215136943
C -1.2973945283 1.3049957601 0.0256450643
C 2.1139889018 -0.2759023757 -0.0103259398
O 2.6683475267 -1.3628627954 -0.0365674731
O 2.7855480792 0.8775012533 0.0228974672
C 4.2126183662 0.8272796932 0.0199235264
H -5.3414468246 -0.235419151 -0.000423891
H -4.2228873179 -1.3139678692 0.8731435676
H -4.2239239341 -1.2798584466 -0.9157295808
H -2.1447617409 -1.9866814657 -0.0368223846
H 0.3017368534 -2.191498638 -0.0446598204
H 0.7004934302 2.0523716813 0.0374362943
H -1.7692479622 2.2739991303 0.0448325032
H 4.5714040479 0.9045517466 -1.0067990575
H 4.5541966693 -0.1124884927 0.4559623079
H 4.5490891005 1.6774979155 0.6069401304
*
