  26
  -36.1001459000000       0.500031745845949      !mtd3
 C          3.4439900681        0.6919646904       -0.6045376437
 C          3.4439911900       -0.6918270580       -0.6047021088
 C          2.3360787093       -1.3835745729       -0.1453296262
 C          1.2288578440       -0.6968412369        0.3247872417
 C          1.2288811231        0.6967344700        0.3249393323
 C          2.3360543177        1.3836097367       -0.1450215968
 C          0.0000164422        1.3983816508        0.8308048518
 C         -1.2288462178        0.6967545772        0.3249124735
 C         -2.3359142744        1.3836454781       -0.1452903596
 C         -3.4438723603        0.6920436835       -0.6048158473
 C         -3.4440538185       -0.6917614310       -0.6045868782
 C         -2.3362250724       -1.3835308894       -0.1450163500
 C         -1.2289113572       -0.6968121787        0.3249309862
 C         -0.0000084987       -1.3987521136        0.8304825852
 H          4.3052433578        1.2338556939       -0.9667384155
 H          4.3052579315       -1.2336445374       -0.9670472803
 H          2.3331134925       -2.4645686896       -0.1512537647
 H          2.3330831902        2.4646166334       -0.1505859906
 H         -0.0000781145        1.3569169125        1.9279050846
 H          0.0000518555        2.4490373004        0.5370629833
 H         -2.3328312815        2.4646473679       -0.1510341424
 H         -4.3052186232        1.2339212647       -0.9668274879
 H         -4.3055565346       -1.2336274561       -0.9663232326
 H         -2.3334559960       -2.4645342672       -0.1504995619
 H         -0.0000225023       -1.3578202907        1.9275838457
 H         -0.0000407491       -2.4492147140        0.5358769738
  26
  -36.1001457800000       0.499968254154051      !mtd12
 C          3.4426736175        0.6920289467        0.6062783161
 C          3.4429048659       -0.6917854219        0.6059992115
 C          2.3355673010       -1.3836093964        0.1452464678
 C          1.2287296461       -0.6968834013       -0.3257799081
 C          1.2286633698        0.6966876449       -0.3258345000
 C          2.3352113410        1.3836434484        0.1455614751
 C          0.0000178910        1.3980215358       -0.8327390630
 C         -1.2286823123        0.6967384566       -0.3259306298
 C         -2.3352636512        1.3837229074        0.1452249549
 C         -3.4426896581        0.6921670160        0.6060748399
 C         -3.4428230208       -0.6916367243        0.6061749669
 C         -2.3355256182       -1.3835100980        0.1455368053
 C         -1.2287435381       -0.6968569519       -0.3257017079
 C         -0.0000267765       -1.3986412190       -0.8319218571
 H          4.3033173300        1.2339270256        0.9698259995
 H          4.3039031082       -1.2335584848        0.9690704466
 H          2.3328039811       -2.4646080108        0.1505878334
 H          2.3319375598        2.4646378406        0.1515951156
 H          0.0000326470        2.4489582930       -0.5401572312
 H          0.0000807064        1.3549807165       -1.9297087542
 H         -2.3321778394        2.4647226557        0.1507569579
 H         -4.3035259878        1.2341735468        0.9691750994
 H         -4.3037951605       -1.2333873927        0.9692528577
 H         -2.3326637197       -2.4645103174        0.1514075988
 H         -0.0000277361       -2.4492752414       -0.5378863893
 H         -0.0000452557       -1.3570943352       -1.9290168057
