  26
        -36.10014590
 C          3.4439900681        0.6919646904       -0.6045376437
 C          3.4439911900       -0.6918270580       -0.6047021088
 C          2.3360787093       -1.3835745729       -0.1453296262
 C          1.2288578440       -0.6968412369        0.3247872417
 C          1.2288811231        0.6967344700        0.3249393323
 C          2.3360543177        1.3836097367       -0.1450215968
 C          0.0000164422        1.3983816508        0.8308048518
 C         -1.2288462178        0.6967545772        0.3249124735
 C         -2.3359142744        1.3836454781       -0.1452903596
 C         -3.4438723603        0.6920436835       -0.6048158473
 C         -3.4440538185       -0.6917614310       -0.6045868782
 C         -2.3362250724       -1.3835308894       -0.1450163500
 C         -1.2289113572       -0.6968121787        0.3249309862
 C         -0.0000084987       -1.3987521136        0.8304825852
 H          4.3052433578        1.2338556939       -0.9667384155
 H          4.3052579315       -1.2336445374       -0.9670472803
 H          2.3331134925       -2.4645686896       -0.1512537647
 H          2.3330831902        2.4646166334       -0.1505859906
 H         -0.0000781145        1.3569169125        1.9279050846
 H          0.0000518555        2.4490373004        0.5370629833
 H         -2.3328312815        2.4646473679       -0.1510341424
 H         -4.3052186232        1.2339212647       -0.9668274879
 H         -4.3055565346       -1.2336274561       -0.9663232326
 H         -2.3334559960       -2.4645342672       -0.1504995619
 H         -0.0000225023       -1.3578202907        1.9275838457
 H         -0.0000407491       -2.4492147140        0.5358769738
