! pbe def2-sv(p) def2/J RI DEFGRID1 loosescf d4 GCP(DFT/SV(P)) printgap
%output
    printlevel normal
end
* xyz 0 1
C -1.3595523894 0.3218892473 -0.1195782701
C 0.1088496472 0.5911879887 0.2428783872
C 1.0705933864 -0.3194844716 -0.5336670156
O 1.4355840278 -1.4024910949 0.2893004484
O 0.4522532898 1.9277976867 -0.0516101911
O -1.6658006506 -1.0223372289 0.1616251516
H -1.4959264695 0.5478135096 -1.1863193778
H -1.9998625285 0.9948608194 0.4681752951
H 0.2586465306 0.3682598802 1.3088712599
H 1.9499336245 0.2841706511 -0.7966462426
H 0.5909067389 -0.6700893943 -1.4540985078
H 1.9478956478 -2.0375115955 -0.2296332676
H -0.0443487882 2.527411964 0.5226756082
H -2.5855089406 -1.198688794 -0.0815230819
*
