  22
        -30.79876581
 C          2.4079878892        1.1489800146        0.0000296223
 C          1.2682553887        1.9119551744        0.0000228192
 C          0.0000054031        1.2921311049        0.0000046986
 C         -1.2682475138        1.9119592584       -0.0000205268
 C         -2.4079824511        1.1489900325       -0.0000474182
 C         -2.3794366483       -0.2605572723       -0.0000046960
 C         -1.1668304993       -0.8907432650        0.0000211435
 C         -0.0000048779       -0.1097698755        0.0000039243
 C          1.1668251026       -0.8907431519       -0.0000150804
 C          2.3794353263       -0.2605681863        0.0000052187
 C          0.7752611044       -2.3425980202       -0.0001197811
 C         -0.7752692835       -2.3425956927        0.0001174949
 H          3.3715389370        1.6391887566        0.0000524845
 H          1.3334012438        2.9906256304        0.0000428641
 H         -1.3333759963        2.9906305339       -0.0000149624
 H         -3.3715287479        1.6392079869       -0.0000395823
 H         -3.3079329212       -0.8130516704        0.0000145011
 H          3.3079296804       -0.8130621818       -0.0000161129
 H          1.1740166032       -2.8509873622       -0.8801393289
 H          1.1743239641       -2.8512675802        0.8795918671
 H         -1.1743323042       -2.8512659450       -0.8795954116
 H         -1.1740278313       -2.8509897848        0.8801344380
