  21
        -25.38888887
 C         -2.5326029706       -0.6551643126        0.0000697380
 C         -1.2029347725        0.0377512102        0.0000839934
 C         -1.1513989825        1.4240592200        0.0000503689
 C          0.0628935319        2.0831517379       -0.0001058872
 C          1.2347147305        1.3517747366       -0.0001106120
 C          1.2123306082       -0.0370591761        0.0000241871
 C         -0.0160009924       -0.7021163546        0.0001190240
 C         -0.1009990917       -2.2010964989       -0.0002230475
 C          2.5160368517       -0.7838273821        0.0001609276
 H         -2.6386900143       -1.2887715311        0.8803319316
 H         -3.3420229373        0.0705658234       -0.0009118205
 H         -2.6378129360       -1.2903524189       -0.8791469437
 H         -2.0717143320        1.9908795128        0.0001157441
 H          0.0961174880        3.1627969006       -0.0002495938
 H          2.1855258818        1.8658639466       -0.0003852573
 H         -0.6401385428       -2.5478133037       -0.8818412318
 H          0.8786246694       -2.6651372771        0.0040408755
 H         -0.6479074769       -2.5480773155        0.8764302152
 H          2.6024785026       -1.4174423372       -0.8819622928
 H          3.3489946879       -0.0849731833       -0.0017473939
 H          2.6039104421       -1.4141926199        0.8845071716
