  29
        -50.85779928
 C         -3.3973182416        1.5556100050       -0.6934349841
 C         -2.3031845536        1.2407956148        0.2788149353
 O         -2.4364510481        0.6556815601        1.3209251070
 O         -1.1170752119        1.6875084495       -0.1747276228
 C          0.0403879080        1.3740335951        0.5812219320
 C          1.0687436226        0.6552121943       -0.2973053077
 C          0.4979379695       -0.6056042521       -0.9601487080
 O         -0.1507302441       -1.4404478561       -0.0126842821
 C         -1.4582964111       -1.6904445615       -0.1914339952
 O         -2.0853797942       -1.3018732927       -1.1423255288
 C         -2.0123878640       -2.4853272972        0.9509591033
 O          2.1642676164        0.3408996327        0.5581811842
 C          3.3540699887        0.1191000576       -0.0250292771
 O          3.5379762249        0.1930645965       -1.2097405988
 C          4.3914365202       -0.2345501831        1.0029298895
 H         -3.1354342365        2.4200973758       -1.2944537171
 H         -4.3318774296        1.7115435998       -0.1632729995
 H         -3.5048841959        0.6876714578       -1.3437941981
 H          0.4708918933        2.3053782106        0.9605044246
 H         -0.2328006666        0.7312652491        1.4256158140
 H          1.4219885840        1.3138878749       -1.1019060162
 H          1.3148210695       -1.1745627658       -1.4125681064
 H         -0.2204921349       -0.3149589026       -1.7343317759
 H         -1.2223742608       -3.0366393143        1.4501262294
 H         -2.7935478531       -3.1505459162        0.5955733478
 H         -2.4526581025       -1.7751174802        1.6508824169
 H          4.1829956168        0.2768330782        1.9372107000
 H          5.3784876261        0.0210316441        0.6298059260
 H          4.3505655396       -1.3080437413        1.1782210841
