! r2scan-3c def2/J RI DEFGRID2 scfconv6 printgap
%output
    printlevel normal
end
* xyz 0 1
C -1.8550391462 -1.2411830107 -0.2743248432
C -1.2067655757 -0.0874550989 0.4827913129
C -0.1396964506 0.6592319988 -0.3265705181
C 0.3509024903 1.873257327 0.4630309766
C 1.0323201615 -0.2308312587 -0.767518594
C 1.7908564241 -0.9124739438 0.3663901225
H -2.6773720936 -1.6542429203 0.3054200773
H -2.2477151624 -0.8969080708 -1.2288182771
H -1.1412628275 -2.0385134721 -0.4631115373
H -0.7687328003 -0.4589597146 1.4105890339
H -1.9835555761 0.630850017 0.7570238864
H -0.6162849337 1.0275204717 -1.2440750688
H -0.4696361023 2.5648497079 0.6405863812
H 1.1287592275 2.3985584869 -0.0862770201
H 0.7511564669 1.5714946671 1.4275385385
H 0.6576482131 -0.9946163858 -1.4514954999
H 1.7313278084 0.3909667607 -1.3327896879
H 1.1465020337 -1.5935287387 0.9157501286
H 2.1964358968 -0.1813770704 1.060298359
H 2.6195150488 -1.4876119168 -0.0408935677
*
