  14
        -20.78055808
 C          1.9777791658       -0.8206779627        0.3171531959
 C          0.7376902155        0.0595084450        0.2796485187
 C          1.0258375785        1.4436000540       -0.2903595463
 O         -0.2333880965       -0.6102291831       -0.5537676350
 C         -1.5060010731       -0.3925061251       -0.3024155485
 O         -1.9689547703        0.3030034090        0.5536482273
 H          2.3841010960       -0.9302966180       -0.6848757727
 H          2.7290464069       -0.3698815429        0.9589115884
 H          1.7301321690       -1.8065528214        0.7016111414
 H          0.3020246779        0.1589813828        1.2821595265
 H          0.1164562980        2.0396758175       -0.3020026983
 H          1.4053048529        1.3572122107       -1.3059178299
 H          1.7660352891        1.9475615144        0.3243828184
 H         -2.1109403979       -0.9747871061       -1.0203579485
  14
        -20.78036904
 C          1.7181330013       -0.8565898512        0.5408829556
 C          0.7089692003        0.2323462520        0.1991961796
 C          1.3606835523        1.4264903663       -0.4857623210
 O         -0.2689095190       -0.3244945905       -0.7061622076
 C         -1.5185219244       -0.4055858901       -0.3042507874
 O         -1.9711965141       -0.0671671628        0.7499252775
 H          1.2196365885       -1.6982366172        1.0155497564
 H          2.2084865584       -1.2057545646       -0.3643646477
 H          2.4669581364       -0.4629412765        1.2220959648
 H          0.1785479697        0.5546283067        1.1038391090
 H          0.6122207259        2.1750624649       -0.7335902699
 H          1.8516539697        1.1069223255       -1.4014888513
 H          2.0972982990        1.8725801213        0.1761082392
 H         -2.1178614682       -0.8519747580       -1.1177880621
  14
        -20.77951266
 C          1.3956929228       -0.8843710109       -0.6620129805
 C          0.9541469777        0.0692098172        0.4422797794
 C          0.9273107464        1.5189868700       -0.0280701058
 O         -0.3237858826       -0.3250628652        0.9937268882
 C         -1.4001180243       -0.3353554490        0.2371752442
 O         -1.5053348141       -0.0508064072       -0.9196692911
 H          2.4148704349       -0.6495139531       -0.9558381337
 H          1.3596885784       -1.9123321877       -0.3081434989
 H          0.7463290495       -0.7858584799       -1.5276845518
 H          1.6226952251       -0.0283725765        1.3057851671
 H          1.9320845123        1.8287074192       -0.3013492094
 H          0.5640235522        2.1659122730        0.7673700258
 H          0.2774993002        1.6233109025       -0.8927421618
 H         -2.2500660911       -0.6663132281        0.8636655080
