  14
  -20.7805580800000       4.422444837785892E-002 !mtd14
 C          1.9777791658       -0.8206779627        0.3171531959
 C          0.7376902155        0.0595084450        0.2796485187
 C          1.0258375785        1.4436000540       -0.2903595463
 O         -0.2333880965       -0.6102291831       -0.5537676350
 C         -1.5060010731       -0.3925061251       -0.3024155485
 O         -1.9689547703        0.3030034090        0.5536482273
 H          2.3841010960       -0.9302966180       -0.6848757727
 H          2.7290464069       -0.3698815429        0.9589115884
 H          1.7301321690       -1.8065528214        0.7016111414
 H          0.3020246779        0.1589813828        1.2821595265
 H          0.1164562980        2.0396758175       -0.3020026983
 H          1.4053048529        1.3572122107       -1.3059178299
 H          1.7660352891        1.9475615144        0.3243828184
 H         -2.1109403979       -0.9747871061       -1.0203579485
  14
  -20.7805580700000       4.422398039963111E-002 !md4
 C          1.9781533156       -0.8205407965        0.3166876624
 C          0.7377467048        0.0592191618        0.2798415705
 C          1.0252397914        1.4435208749       -0.2899952012
 O         -0.2333596460       -0.6106871152       -0.5534169147
 C         -1.5059509978       -0.3924735325       -0.3023987410
 O         -1.9688590385        0.3036176090        0.5532205774
 H          2.3834898311       -0.9306366460       -0.6856880445
 H          2.7299298885       -0.3691132994        0.9574069461
 H          1.7312095663       -1.8062592316        0.7019856430
 H          0.3023697004        0.1583120921        1.2825209164
 H          1.4047730482        1.3575374984       -1.3055666269
 H          1.7651725591        1.9477215438        0.3248577919
 H          0.1155820252        2.0391717344       -0.3015217227
 H         -2.1109423601       -0.9749335298       -1.0201579140
  14
  -20.7805580600000       4.422351242618914E-002 !gc
 C          1.9779957326       -0.8206059281        0.3169477940
 C          0.7377341384        0.0593577809        0.2797793210
 C          1.0255395899        1.4435242865       -0.2902429477
 O         -0.2333783130       -0.6104248686       -0.5535672757
 C         -1.5059834516       -0.3923951211       -0.3024832567
 O         -1.9689370184        0.3032293921        0.5534950417
 H          2.7292315156       -0.3698459879        0.9587799713
 H          1.7305122313       -1.8066162406        0.7011734846
 H          2.3842599463       -0.9298941872       -0.6851542076
 H          0.3021845076        0.1586407642        1.2823585917
 H          1.7665703727        1.9471504890        0.3237627677
 H          0.1162947701        2.0398202026       -0.3007101977
 H          1.4038264308        1.3572993595       -1.3062538476
 H         -2.1109196034       -0.9746054001       -1.0204881995
  14
  -20.7805580600000       4.422351242618914E-002 !mtd4
 C          1.9778044842       -0.8206592219        0.3171853819
 C          0.7376902542        0.0594877065        0.2796397652
 C          1.0258178522        1.4435753013       -0.2903733646
 O         -0.2334061641       -0.6102135266       -0.5537863223
 C         -1.5060073702       -0.3924784184       -0.3024455060
 O         -1.9689394311        0.3029943031        0.5536778779
 H          2.7285847431       -0.3705146307        0.9599820628
 H          1.7298638310       -1.8069071318        0.7004735324
 H          2.3848960785       -0.9292984516       -0.6846336965
 H          0.3020285891        0.1589454113        1.2821545654
 H          0.1165696820        2.0398629732       -0.3015049842
 H          1.4047529985        1.3571984246       -1.3061272271
 H          1.7664447731        1.9473029634        0.3240313699
 H         -2.1109290533       -0.9747921022       -1.0203964007
  14
  -20.7805580600000       4.422351242618914E-002 !md8
 C          1.4350125211       -0.8276781512        0.6916580999
 C          0.6805102553        0.3774496666        0.1420875549
 C          1.5898975037        1.3339002827       -0.6143360374
 O         -0.3301310005       -0.0717597363       -0.7868621574
 C         -1.5033858971       -0.4074243495       -0.2960091320
 O         -1.8462751109       -0.3809825798        0.8497018115
 H          0.7513814120       -1.4866808143        1.2215423736
 H          1.8994367597       -1.3799340520       -0.1220627232
 H          2.2054272333       -0.4956984754        1.3816093896
 H          0.1692037350        0.8959664158        0.9633305944
 H          2.0705909120        0.8135115383       -1.4385440199
 H          2.3520880442        1.7225995491        0.0545847000
 H          1.0150403794        2.1643541671       -1.0155577766
 H         -2.1562362752       -0.7226615319       -1.1295934708
  14
  -20.7805580500000       4.422304445769921E-002 !mtd4
 C          1.9789964981       -0.8201832340        0.3156612603
 C          0.7378505443        0.0585750308        0.2801556615
 C          1.0239598220        1.4433959968       -0.2891121158
 O         -0.2333361982       -0.6118266885       -0.5526264749
 C         -1.5058792913       -0.3924014248       -0.3023769405
 O         -1.9686127415        0.3050209199        0.5522659320
 H          2.7304825915       -0.3689880186        0.9568959940
 H          1.7328550486       -1.8065963520        0.6997037327
 H          2.3843095053       -0.9286472866       -0.6869125894
 H          0.3031794054        0.1568749546        1.2832255310
 H          1.4025801138        1.3582469926       -1.3050821001
 H          1.7641249483        1.9477797827        0.3253053999
 H          0.1138955490        2.0384089122       -0.2994283913
 H         -2.1110116572       -0.9754215410       -1.0195588720
  14
  -20.7805580400000       4.422257649416129E-002 !md3
 C          1.9776629392       -0.8207982811        0.3173584258
 C          0.7377216556        0.0596254847        0.2795611660
 C          1.0260238374        1.4436713707       -0.2904722755
 O         -0.2334141354       -0.6100419088       -0.5539424179
 C         -1.5060312264       -0.3925916157       -0.3023623116
 O         -1.9689980752        0.3028134297        0.5537848049
 H          2.3838497978       -0.9308932692       -0.6846961288
 H          2.7291394122       -0.3699112745        0.9588527756
 H          1.7298911658       -1.8065128610        0.7022405076
 H          0.3019120426        0.1591988900        1.2819842985
 H          1.7657048735        1.9478616538        0.3247302967
 H          0.1165917004        2.0396649550       -0.3028603057
 H          1.4062593578        1.3571927845       -1.3057373720
 H         -2.1109370946       -0.9744371259       -1.0206925409
  14
  -20.7805580400000       4.422257649416129E-002 !mtd1
 C          1.4348070608       -0.8276569934        0.6917427486
 C          0.6805128104        0.3775168077        0.1420263591
 C          1.5900074673        1.3338819630       -0.6143875045
 O         -0.3301482253       -0.0716646208       -0.7868893613
 C         -1.5034034858       -0.4074294041       -0.2960181241
 O         -1.8461501052       -0.3811475273        0.8497534858
 H          2.2049759959       -0.4956513330        1.3819741380
 H          0.7509543101       -1.4866578080        1.2213763979
 H          1.8994861849       -1.3798543934       -0.1218931736
 H          0.1692392873        0.8961091111        0.9632335399
 H          1.0152018050        2.1642372243       -1.0159561901
 H          2.0709220738        0.8132675179       -1.4383180293
 H          2.3520466922        1.7227067985        0.0546265066
 H         -2.1562878894       -0.7223655029       -1.1296815653
  14
  -20.7805580300000       4.422210853574155E-002 !mtd11
 C          1.4320759423       -0.8272739479        0.6929432403
 C          0.6802967721        0.3788107333        0.1416594018
 C          1.5917584696        1.3327314357       -0.6155068140
 O         -0.3308182530       -0.0691858085       -0.7873324557
 C         -1.5031273881       -0.4072965536       -0.2958993258
 O         -1.8445913336       -0.3840815008        0.8503448784
 H          2.2037047142       -0.4959596780        1.3818482083
 H          0.7471889199       -1.4837690837        1.2243503383
 H          1.8946966266       -1.3820117168       -0.1201172943
 H          0.1696616560        0.8992529848        0.9621025525
 H          2.0714536194        0.8103440524       -1.4390250187
 H          2.3546177535        1.7205065673        0.0531541699
 H          1.0187355746        2.1639935375       -1.0178766406
 H         -2.1566641360       -0.7211965382       -1.1294389393
  14
  -20.7805580300000       4.422210853574155E-002 !mtd6
 C          1.9779428009       -0.8205451038        0.3169965894
 C          0.7376827147        0.0593938390        0.2797128879
 C          1.0256810706        1.4435298764       -0.2902337662
 O         -0.2333978314       -0.6104302942       -0.5536806532
 C         -1.5059980723       -0.3924559164       -0.3024582551
 O         -1.9689437160        0.3032218079        0.5535492251
 H          1.7300267301       -1.8070200174        0.6997364340
 H          2.3853196494       -0.9286172184       -0.6847810134
 H          2.7284801041       -0.3705906985        0.9602134399
 H          0.3021047439        0.1587084638        1.2822860283
 H          1.7667794750        1.9470797359        0.3237631658
 H          0.1164789119        2.0398868764       -0.3006485628
 H          1.4039290249        1.3572894937       -1.3062657560
 H         -2.1110105005       -0.9750777764       -1.0200928959
  14
  -20.7805580300000       4.422210853574155E-002 !mtd5
 C          1.4338721440       -0.8275492612        0.6920574790
 C          0.6804478115        0.3780361849        0.1419794939
 C          1.5906556535        1.3334045782       -0.6147654863
 O         -0.3304205381       -0.0706625606       -0.7870093509
 C         -1.5031841309       -0.4075708529       -0.2959596655
 O         -1.8457414734       -0.3820707872        0.8499222691
 H          1.8988106248       -1.3799655890       -0.1212749007
 H          2.2037820207       -0.4960260650        1.3827965127
 H          0.7494026989       -1.4862779269        1.2212372804
 H          0.1694293968        0.8972430778        0.9629687947
 H          1.0167107513        2.1644793211       -1.0159571495
 H          2.0705704479        0.8123477040       -1.4389737951
 H          2.3534293837        1.7212469268        0.0539634167
 H         -2.1561833030       -0.7226053328       -1.1295574863
  14
  -20.7805580200000       4.422164058210745E-002 !mtd3
 C          1.4359622991       -0.8278853996        0.6911908080
 C          0.6806183547        0.3770283459        0.1422835616
 C          1.5892594442        1.3343287245       -0.6139786271
 O         -0.3298592918       -0.0725848545       -0.7866383063
 C         -1.5034501713       -0.4074635039       -0.2960488979
 O         -1.8468929129       -0.3799706111        0.8494736726
 H          1.8986641977       -1.3807323329       -0.1231104263
 H          2.2078372667       -0.4955885992        1.3793483852
 H          0.7532981970       -1.4864567578        1.2228579385
 H          0.1691369143        0.8949501762        0.9637892655
 H          2.3515078808        1.7230874333        0.0548395902
 H          1.0138259515        2.1646909552       -1.0145637907
 H          2.0698895888        0.8145915099       -1.4386286592
 H         -2.1559708756       -0.7232001643       -1.1297076275
  14
  -20.7805580200000       4.422164058210745E-002 !md4
 C          1.4344019044       -0.8276660854        0.6916693949
 C          0.6804525837        0.3777473988        0.1419805469
 C          1.5902152714        1.3339444106       -0.6142969067
 O         -0.3301542095       -0.0716364248       -0.7869555755
 C         -1.5032063596       -0.4077854298       -0.2959073797
 O         -1.8460682363       -0.3810634608        0.8497430075
 H          1.8988105346       -1.3800120676       -0.1220070967
 H          2.2047523551       -0.4960491829        1.3818285254
 H          0.7503650643       -1.4864690759        1.2213023846
 H          0.1691415471        0.8964847374        0.9630622508
 H          2.0707608967        0.8134359712       -1.4385367873
 H          2.3525720617        1.7222698940        0.0547252242
 H          1.0156885096        2.1646707537       -1.0154678529
 H         -2.1560366954       -0.7234625162       -1.1293068922
  14
  -20.7805580200000       4.422164058210745E-002 !gc
 C          1.4343823839       -0.8275956792        0.6918405272
 C          0.6804848440        0.3778013896        0.1420458826
 C          1.5903494585        1.3336330841       -0.6145544634
 O         -0.3303017985       -0.0711915276       -0.7869112729
 C         -1.5032527598       -0.4075068389       -0.2959840213
 O         -1.8460344500       -0.3815682907        0.8498187146
 H          0.7505587708       -1.4858093585        1.2224472850
 H          1.8979324676       -1.3805974865       -0.1218741213
 H          2.2054334039       -0.4958553695        1.3811866119
 H          0.1693467881        0.8967082148        0.9631348615
 H          2.3543896820        1.7200208597        0.0535793548
 H          1.0164182514        2.1656756757       -1.0137734203
 H          2.0686682276        0.8133792375       -1.4402178706
 H         -2.1560847759       -0.7227942032       -1.1296233423
  14
  -20.7805580000000       4.422070468969469E-002 !mtd6
 C          1.9785918205       -0.8203412041        0.3161676419
 C          0.7378139970        0.0589165948        0.2799477821
 C          1.0246262286        1.4434842226       -0.2894950807
 O         -0.2333798325       -0.6113021972       -0.5530258020
 C         -1.5059597589       -0.3924847342       -0.3023660470
 O         -1.9687017208        0.3043655148        0.5527053088
 H          1.7321770010       -1.8057778303        0.7020967874
 H          2.3830126709       -0.9309561920       -0.6864871910
 H          2.7308384525       -0.3685022555        0.9561412671
 H          0.3027713092        0.1576556834        1.2828041825
 H          0.1147230752        2.0387824276       -0.3002768377
 H          1.4035789613        1.3578674791       -1.3053172208
 H          1.7647433623        1.9477346205        0.3251467686
 H         -2.1110487592       -0.9753148136       -1.0197180883
  14
  -20.7805579900000       4.422023675091594E-002 !mtd6
 C          1.4362783672       -0.8278205964        0.6909745168
 C          0.6805594374        0.3769391450        0.1423220735
 C          1.5891825092        1.3344022828       -0.6137681488
 O         -0.3297748850       -0.0729951168       -0.7865892908
 C         -1.5035209620       -0.4075164798       -0.2960587447
 O         -1.8470882644       -0.3795793589        0.8493961465
 H          2.2070868566       -0.4954877317        1.3803061700
 H          0.7534451258       -1.4872686286        1.2213314380
 H          1.9003060169       -1.3797013022       -0.1232383610
 H          0.1689209423        0.8945968785        0.9639091285
 H          2.3516346984        1.7228395863        0.0550260924
 H          1.0136835317        2.1649863128       -1.0137158187
 H          2.0695200036        0.8150365164       -1.4388600640
 H         -2.1559509235       -0.7233121804       -1.1297536598
  14
  -20.7805579900000       4.422023675091594E-002 !mtd13
 C          1.4320990871       -0.8270136520        0.6929181311
 C          0.6801177451        0.3788638001        0.1415443214
 C          1.5919764036        1.3325679512       -0.6153142677
 O         -0.3309077327       -0.0693330520       -0.7874564319
 C         -1.5032447247       -0.4074920341       -0.2958890856
 O         -1.8444910109       -0.3839294713        0.8503662579
 H          0.7472658545       -1.4828846514        1.2250854902
 H          1.8940164089       -1.3823636941       -0.1201532309
 H          2.2042602181       -0.4955947938        1.3811633212
 H          0.1694483809        0.8993944794        0.9619345106
 H          1.0187391369        2.1628435101       -1.0191529233
 H          2.0733937177        0.8099494442       -1.4377149018
 H          2.3535714646        1.7217434369        0.0540656038
 H         -2.1568137526       -0.7214601435       -1.1293478334
  14
  -20.7805579600000       4.421883296445577E-002 !mtd10
 C          1.9784837253       -0.8204205804        0.3165453687
 C          0.7378387214        0.0589621295        0.2799271081
 C          1.0246532258        1.4434281740       -0.2898425425
 O         -0.2333675847       -0.6111592322       -0.5532346224
 C         -1.5058695901       -0.3920769815       -0.3026121213
 O         -1.9687398147        0.3039068353        0.5531547988
 H          1.7311463295       -1.8075014064        0.6980542146
 H          2.3862182868       -0.9271228898       -0.6851884985
 H          2.7285751490       -0.3708037073        0.9604299531
 H          0.3026490070        0.1577538542        1.2826993726
 H          1.4034223231        1.3575898203       -1.3057066602
 H          1.7650139149        1.9476610516        0.3244800117
 H          0.1148980100        2.0389444085       -0.3006257773
 H         -2.1111193991       -0.9738082824       -1.0207551979
  14
  -20.7803690400000       3.620642589721615E-002 !mtd11
 C          1.7181330013       -0.8565898512        0.5408829556
 C          0.7089692003        0.2323462520        0.1991961796
 C          1.3606835523        1.4264903663       -0.4857623210
 O         -0.2689095190       -0.3244945905       -0.7061622076
 C         -1.5185219244       -0.4055858901       -0.3042507874
 O         -1.9711965141       -0.0671671628        0.7499252775
 H          1.2196365885       -1.6982366172        1.0155497564
 H          2.2084865584       -1.2057545646       -0.3643646477
 H          2.4669581364       -0.4629412765        1.2220959648
 H          0.1785479697        0.5546283067        1.1038391090
 H          0.6122207259        2.1750624649       -0.7335902699
 H          1.8516539697        1.1069223255       -1.4014888513
 H          2.0972982990        1.8725801213        0.1761082392
 H         -2.1178614682       -0.8519747580       -1.1177880621
  14
  -20.7803672700000       3.613867455428034E-002 !gc
 C          1.7596287349       -0.8562877205        0.5130777067
 C          0.7133160212        0.2082655757        0.2097771890
 C          1.3182586413        1.4345390647       -0.4618963195
 O         -0.2617000036       -0.3642843248       -0.6888208989
 C         -1.5188979304       -0.4041832236       -0.3048569061
 O         -1.9808958779       -0.0161193641        0.7279379511
 H          2.5065799567       -0.4543734303        1.1914689908
 H          1.2941032538       -1.7225874465        0.9766073584
 H          2.2461563005       -1.1712564887       -0.4066582489
 H          0.1884032351        0.4988164297        1.1282561794
 H          1.7974434757        1.1484198271       -1.3948749422
 H          2.0570846307        1.8859103217        0.1939276315
 H          0.5447582835        2.1678923093       -0.6764658774
 H         -2.1143112730       -0.8705110210       -1.1100748877
  14
  -20.7795126600000       1.462920269654359E-002 !mtd7
 C          1.3956929228       -0.8843710109       -0.6620129805
 C          0.9541469777        0.0692098172        0.4422797794
 C          0.9273107464        1.5189868700       -0.0280701058
 O         -0.3237858826       -0.3250628652        0.9937268882
 C         -1.4001180243       -0.3353554490        0.2371752442
 O         -1.5053348141       -0.0508064072       -0.9196692911
 H          2.4148704349       -0.6495139531       -0.9558381337
 H          1.3596885784       -1.9123321877       -0.3081434989
 H          0.7463290495       -0.7858584799       -1.5276845518
 H          1.6226952251       -0.0283725765        1.3057851671
 H          1.9320845123        1.8287074192       -0.3013492094
 H          0.5640235522        2.1659122730        0.7673700258
 H          0.2774993002        1.6233109025       -0.8927421618
 H         -2.2500660911       -0.6663132281        0.8636655080
  14
  -20.7795126500000       1.462904789188156E-002 !mtd7
 C          1.3953868669       -0.8845652955       -0.6618640725
 C          0.9541548199        0.0693910357        0.4422413849
 C          0.9277423409        1.5190600198       -0.0284114219
 O         -0.3238242892       -0.3245201262        0.9938633004
 C         -1.4001639134       -0.3352074685        0.2373241695
 O         -1.5053980716       -0.0515286908       -0.9197302250
 H          2.4146335428       -0.6499625825       -0.9557136799
 H          1.3591943862       -1.9125189248       -0.3077519986
 H          0.7460725459       -0.7860083716       -1.5275418914
 H          1.6227632149       -0.0281057346        1.3057040942
 H          0.2770435165        1.6234808568       -0.8924500364
 H          1.9324587552        1.8280499175       -0.3028544205
 H          0.5657004960        2.1663631261        0.7673219570
 H         -2.2501707083       -0.6653874989        0.8641266964
  14
  -20.7795126500000       1.462904789188156E-002 !mtd4
 C          1.3956403641       -0.8843423670       -0.6620691344
 C          0.9542073589        0.0692297999        0.4422456765
 C          0.9273265958        1.5190245148       -0.0279856527
 O         -0.3237463670       -0.3252446629        0.9936879323
 C         -1.4000603331       -0.3354506837        0.2371434434
 O         -1.5054270203       -0.0506534949       -0.9196173245
 H          1.3594511196       -1.9123181810       -0.3082901352
 H          0.7463779320       -0.7856414635       -1.5278125500
 H          2.4148881782       -0.6496774398       -0.9557563277
 H          1.6227487625       -0.0283208532        1.3057415055
 H          1.9321683568        1.8289223768       -0.3008685521
 H          0.5636214155        2.1658671106        0.7673602824
 H          0.2778128764        1.6231970889       -0.8929175780
 H         -2.2500772603       -0.6659231281        0.8638480950
  14
  -20.7795126400000       1.462889308885766E-002 !mtd2
 C          1.3952847835       -0.8845313664       -0.6618762174
 C          0.9541566815        0.0693694307        0.4422802127
 C          0.9277715290        1.5190233319       -0.0284599644
 O         -0.3238896634       -0.3243906825        0.9939579657
 C         -1.4001039222       -0.3352054032        0.2372923132
 O         -1.5052809335       -0.0516291544       -0.9197616631
 H          0.7462009069       -0.7854975122       -1.5277252137
 H          2.4145198035       -0.6503725912       -0.9555079025
 H          1.3585011404       -1.9125087802       -0.3079834486
 H          1.6227634318       -0.0281616552        1.3057418459
 H          0.5648628407        2.1662073036        0.7669672672
 H          0.2776936885        1.6232030968       -0.8929843866
 H          1.9326212746        1.8283394551       -0.3020908353
 H         -2.2501574443       -0.6654928292        0.8640598513
  14
  -20.7795126300000       1.462873828747187E-002 !mtd9
 C          1.3955158976       -0.8842789436       -0.6620317335
 C          0.9541678649        0.0692521064        0.4423222184
 C          0.9273898645        1.5189220429       -0.0281262942
 O         -0.3238717964       -0.3250640342        0.9938122179
 C         -1.4000645123       -0.3351621265        0.2371737070
 O         -1.5051793290       -0.0510520114       -0.9197328410
 H          0.7463398990       -0.7855273888       -1.5278365797
 H          2.4148290476       -0.6497948384       -0.9556568971
 H          1.3591280599       -1.9122159843       -0.3082011342
 H          1.6226601669       -0.0283084166        1.3058688306
 H          0.2772113096        1.6231296922       -0.8924336125
 H          1.9322103653        1.8286942385       -0.3018301158
 H          0.5642005269        2.1657807171        0.7674965023
 H         -2.2502790482       -0.6654329420        0.8637160622
  14
  -20.7795126200000       1.462858348772418E-002 !mtd8
 C          1.3960658382       -0.8842629696       -0.6620762575
 C          0.9541879427        0.0691332093        0.4422280608
 C          0.9270577590        1.5190067928       -0.0277904045
 O         -0.3237191652       -0.3256486777        0.9935091772
 C         -1.4001252070       -0.3353754447        0.2371005115
 O         -1.5055426633       -0.0502406075       -0.9195505941
 H          2.4148374788       -0.6485028681       -0.9566147028
 H          1.3612429593       -1.9121994059       -0.3080463734
 H          0.7460133167       -0.7864008945       -1.5273435170
 H          1.6226656679       -0.0284485606        1.3057646196
 H          0.5633005709        2.1656923112        0.7676518492
 H          0.2775281022        1.6233184733       -0.8926903708
 H          1.9318746867        1.8290417701       -0.3006055391
 H         -2.2499296400       -0.6670166922        0.8634467286
  14
  -20.7795126000000       1.462827389319798E-002 !mtd10
 C          1.3963045706       -0.8838171205       -0.6624285317
 C          0.9541671316        0.0689435003        0.4423477504
 C          0.9267526630        1.5189807331       -0.0272108525
 O         -0.3235576991       -0.3267466897        0.9931921161
 C         -1.4000627476       -0.3357767035        0.2368530469
 O         -1.5056742413       -0.0490336165       -0.9193193157
 H          1.3610578982       -1.9119838109       -0.3090578780
 H          0.7468020590       -0.7852780225       -1.5280189227
 H          2.4152957908       -0.6481243721       -0.9561964301
 H          1.6226786740       -0.0287666305        1.3058635128
 H          0.5643684454        2.1654278199        0.7689143368
 H          0.2757590743        1.6237063076       -0.8910212111
 H          1.9311942194        1.8288452213       -0.3016414549
 H         -2.2498029321       -0.6680323999        0.8628966955
  14
  -20.7795125500000       1.462749993546539E-002 !gc
 C          1.3955662268       -0.8844567417       -0.6619451425
 C          0.9542148996        0.0693009872        0.4422723500
 C          0.9273303281        1.5190434414       -0.0281440022
 O         -0.3237824233       -0.3250032134        0.9937265841
 C         -1.4001172289       -0.3352502231        0.2372260320
 O         -1.5052881761       -0.0509917430       -0.9196796839
 H          1.3609873184       -1.9122921408       -0.3075323693
 H          0.7452622118       -0.7869811598       -1.5270603176
 H          2.4142247640       -0.6487028654       -0.9568615531
 H          1.6226946477       -0.0281993261        1.3058260138
 H          0.2753114201        1.6237349055       -0.8911293648
 H          1.9316784636        1.8277428019       -0.3041992163
 H          0.5667742110        2.1664651441        0.7681504314
 H         -2.2501461473       -0.6662250168        0.8635948227
  14
  -20.7795125300000       1.462719036387114E-002 !mtd9
 C          1.3951944690       -0.8846435569       -0.6617822233
 C          0.9541096840        0.0694512662        0.4423008351
 C          0.9277886745        1.5189963201       -0.0286165578
 O         -0.3239408670       -0.3240917695        0.9940050076
 C         -1.4001139923       -0.3351440339        0.2372937754
 O         -1.5051275595       -0.0518979595       -0.9197830933
 H          0.7475008964       -0.7842387097       -1.5285101761
 H          2.4154894466       -0.6522640982       -0.9537663577
 H          1.3560131235       -1.9126031638       -0.3082158581
 H          1.6227416401       -0.0279822236        1.3057504702
 H          1.9330135638        1.8286898239       -0.3006641610
 H          0.5633104317        2.1660960592        0.7661970213
 H          0.2790638457        1.6229474354       -0.8942301869
 H         -2.2501971472       -0.6654542666        0.8639926750
