! r2scan-3c def2/J RI DEFGRID2 scfconv6 printgap
%output
    printlevel normal
end
%cpcm
    smd true
    smdsolvent "water"
end
* xyz 0 1
C -2.0213112351 0.8697748979 -0.6583535267
C -1.351999563 0.5082391134 0.663386694
C -0.0312255419 -0.2630921055 0.5335532426
H 0.3568254574 -0.4040852819 1.5508731252
C -0.2160699421 -1.6442321887 -0.0911631796
C 1.0187136751 0.5380872584 -0.2484924773
O 2.3183819805 -0.0049111222 -0.1423639531
H -1.3808667836 1.5118488791 -1.2567850905
H -2.2575914616 -0.0204269136 -1.233976536
H -2.9496086469 1.4016238027 -0.4637384843
H -2.041616938 -0.0987072486 1.2539885827
H -1.1618193825 1.4277158137 1.2225619422
H -0.6145257733 -1.5621173335 -1.0986064186
H -0.8947346277 -2.2471735955 0.5068806236
H 0.7440827267 -2.1514969012 -0.1508950862
H 1.0196504234 1.5837269267 0.090314432
H 0.7930805612 0.5197406413 -1.3166522461
H 2.5915211547 0.0127163815 0.7852905958
*
