! r2scan-3c def2/J RI DEFGRID2 scfconv6 printgap
%output
    printlevel normal
end
* xyz 0 1
C -2.5347384451 -0.1140227078 0.4889838675
C -1.8012841434 -1.2503534199 0.1945858113
C -0.5208622065 -1.1363964929 -0.3203349431
C 0.0416652509 0.1131042672 -0.5507062466
C -0.7032695216 1.2482331571 -0.2500054029
C -1.9822516443 1.1365099896 0.2646611748
C 1.4461655626 0.2432993752 -1.0676795316
C 2.4365283248 0.4861764499 0.0832822915
O 2.5902397086 -0.6338276281 0.9267018858
H -3.533827069 -0.201438612 0.8886177468
H -2.226586318 -2.2282132447 0.3649765916
H 0.0459209761 -2.0265923076 -0.5530629246
H -0.2768685356 2.2253045093 -0.4263237906
H -2.5510069242 2.0264390475 0.4898031344
H 1.7426332321 -0.6663202732 -1.5918443662
H 1.516561044 1.0863617047 -1.755422358
H 3.4330864331 0.6803384145 -0.3194554374
H 2.1168551984 1.3597808627 0.6677012691
H 1.7315246459 -0.8524829252 1.3148900237
*
