  5
  -7.47337190000000        1.00000000000000      !md1
 C         -1.9089354436       -0.0000050326       -0.0000049283
 I          0.2342151521       -0.0000006230       -0.0000001741
 H         -2.2473046507       -0.9196822139       -0.4601056234
 H         -2.2471021265        0.0613962088        1.0265459682
 H         -2.2470687287        0.8584244226       -0.5663596887
