! r2scan-3c def2/J RI DEFGRID2 scfconv6 printgap
%output
    printlevel normal
end
* xyz 0 1
C -1.9773768177 0.2669245744 -0.5723576085
C -1.0280521381 0.2656801439 0.6311728558
N 0.0421513968 -0.7170746251 0.5883672413
C 1.0566684606 -0.5213226778 -0.4390992653
C 1.9346946887 0.6909919412 -0.1429891866
H -2.4182307901 -0.7191713592 -0.7082784497
H -2.7765343854 0.9847005679 -0.4101150379
H -1.4521686405 0.5408612529 -1.4844465778
H -1.6035398007 0.0577203746 1.5378875273
H -0.5760467799 1.2526661513 0.7442045221
H -0.3676480261 -1.6389067597 0.4760100114
H 1.6822310698 -1.4177036631 -0.4315025291
H 0.6296981461 -0.4226050418 -1.4513627575
H 2.2878233967 0.6448842886 0.8830335968
H 2.7897332482 0.6951994772 -0.8133971939
H 1.3865414976 1.618702642 -0.2828109425
*
