  8
  -14.4599425000000       0.333541394789911      !md1
 C         -1.4533720513        0.0525304888       -0.0000315101
 C          0.0401006089       -0.0995399630       -0.0001304385
 O          0.6442666434       -1.1365009249        0.0000311111
 O          0.6570945836        1.0912175320        0.0000084152
 H         -1.7554703554        0.6215911052       -0.8757887465
 H         -1.9242749370       -0.9250516322       -0.0071312711
 H         -1.7562195895        0.6084141883        0.8839690109
 H          1.6199161450        0.9740798848        0.0002534839
  8
  -14.4599424300000       0.333516689079943      !md1
 C         -1.4533442400        0.0524940560       -0.0000718475
 C          0.0401483885       -0.0994785303       -0.0005629925
 O          0.6442119281       -1.1365222794        0.0000240406
 O          0.6570889116        1.0912340155       -0.0000256025
 H         -1.9243034062       -0.9245669284       -0.0305410479
 H         -1.7569145537        0.5860791721        0.8974133012
 H         -1.7546304178        0.6432075879       -0.8615571677
 H          1.6198574233        0.9740931177        0.0022750051
  8
  -14.4599408000000       0.332941916130145      !md1
 C         -1.4534042725        0.0523825022        0.0001264684
 C          0.0401719058       -0.0992228174        0.0022407093
 O          0.6440969163       -1.1363963386        0.0000013574
 O          0.6572608400        1.0913102397        0.0001306635
 H         -1.7506185533        0.7368641323        0.7900807693
 H         -1.7625927890        0.4792174136       -0.9514607610
 H         -1.9232266727       -0.9160546016        0.1377595869
 H          1.6199787135        0.9738589148       -0.0066846133
