  8
        -14.45994250
 C         -1.4533720513        0.0525304888       -0.0000315101
 C          0.0401006089       -0.0995399630       -0.0001304385
 O          0.6442666434       -1.1365009249        0.0000311111
 O          0.6570945836        1.0912175320        0.0000084152
 H         -1.7554703554        0.6215911052       -0.8757887465
 H         -1.9242749370       -0.9250516322       -0.0071312711
 H         -1.7562195895        0.6084141883        0.8839690109
 H          1.6199161450        0.9740798848        0.0002534839
