  22
        -36.56830003
 C         -4.3718585117       -0.4715474473        0.0011508404
 O         -3.4325064368        0.5780799385       -0.0006201996
 C         -2.1118417910        0.2750282048       -0.0002727292
 C         -1.2380631019        1.3683200225       -0.0008051117
 C          0.1235850509        1.1778683642       -0.0006991486
 C          0.6499691493       -0.1148624625       -0.0000965617
 C         -0.2200833657       -1.2010477477        0.0004310059
 C         -1.5882392470       -1.0165081359        0.0003752861
 C          2.1028013720       -0.3762873047       -0.0002882087
 O          2.6015608237       -1.4768279744       -0.0014431607
 O          2.8335920773        0.7534368444        0.0012321498
 C          4.2403500427        0.5747712361        0.0008011743
 H         -4.2764565068       -1.0968843496       -0.8918625491
 H         -5.3488894350        0.0088903186        0.0012394814
 H         -4.2752466970       -1.0948614947        0.8954456254
 H         -1.6644033646        2.3590541503       -0.0012644738
 H          0.7919818489        2.0239909400       -0.0009318958
 H          0.1981601221       -2.1962806061        0.0007286604
 H         -2.2358706978       -1.8788428599        0.0007331152
 H          4.5529880865        0.0157270929        0.8854592914
 H          4.6742302748        1.5715072683        0.0051732653
 H          4.5534142698        0.0234888464       -0.8886348511
  22
        -36.56809509
 C         -4.3718502695       -0.4653330252        0.0170070048
 O         -3.4298770798        0.5818335410        0.0007281943
 C         -2.1099972270        0.2754607833       -0.0029222603
 C         -1.2335037465        1.3665017199       -0.0147186862
 C          0.1276457418        1.1728017568       -0.0164908751
 C          0.6512240830       -0.1210846753       -0.0075982411
 C         -0.2216729233       -1.2049648652        0.0012386761
 C         -1.5894141603       -1.0172105335        0.0043545857
 C          2.1037223087       -0.3878378450       -0.0068172547
 O          2.5931880656       -1.4924503603       -0.0182106386
 O          2.8296909697        0.7441532080        0.0160228500
 C          4.2425717285        0.6123164215        0.0197024518
 H         -4.2707857965       -1.0817217567        0.9156314543
 H         -4.2840856605       -1.0979124282       -0.8716123019
 H         -5.3476242662        0.0175883293        0.0198570276
 H         -1.6573883522        2.3582814325       -0.0215605845
 H          0.7976891872        2.0175431554       -0.0250501188
 H          0.1939125334       -2.2012912487        0.0065503896
 H         -2.2389930350       -1.8780411849        0.0124678937
 H          4.5212838452       -0.4106817990        0.2805792507
 H          4.6361835594        1.3150280798        0.7529557863
 H          4.6285480441        0.8550301300       -0.9722332113
  22
        -36.56808152
 C         -4.2161941466        1.0510779687        0.0024177500
 O         -3.4907729174       -0.1560627927       -0.0007041591
 C         -2.1366532387       -0.1080684076       -0.0006882926
 C         -1.3790861956        1.0618508278        0.0009325120
 C          0.0008298013        0.9928081051        0.0010027733
 C          0.6496973975       -0.2373533368       -0.0004772210
 C         -0.1118542285       -1.4081645729       -0.0023221268
 C         -1.4843671003       -1.3461805795       -0.0025124518
 C          2.1212924616       -0.3528043607        0.0003191489
 O          2.7274437662       -1.3976119313        0.0019641112
 O          2.7368402801        0.8446266143       -0.0010029582
 C          4.1544672261        0.8051047446        0.0002616826
 H         -4.0036480032        1.6449152880        0.8968334974
 H         -5.2660544787        0.7626496787        0.0035264778
 H         -4.0063608044        1.6479248063       -0.8906454060
 H         -1.8552250173        2.0297358435        0.0021728931
 H          0.5835875900        1.9004786107        0.0024694998
 H          0.4013306056       -2.3575181694       -0.0034881849
 H         -2.0873241851       -2.2402396121       -0.0039555116
 H          4.5194881715        0.2840886056        0.8880653175
 H          4.4883522616        1.8396548975       -0.0003505389
 H          4.5210645663        0.2825938966       -0.8860015090
  22
        -36.56788616
 C         -4.2120795390        1.0567805060        0.0009709284
 O         -3.4896924423       -0.1522267877        0.0001538310
 C         -2.1355218905       -0.1074513674       -0.0001856954
 C         -1.3751838698        1.0606897501        0.0002654905
 C          0.0045532180        0.9886107921        0.0003735263
 C          0.6509591208       -0.2428945701       -0.0002372432
 C         -0.1134717998       -1.4118513554       -0.0011278765
 C         -1.4858803072       -1.3469074217       -0.0011050914
 C          2.1227594771       -0.3633297511        0.0014799903
 O          2.7205879276       -1.4128703120       -0.0005120211
 O          2.7338605964        0.8358443534       -0.0020321789
 C          4.1528519892        0.8394088147        0.0017176987
 H         -3.9993944175        1.6510178273        0.8951082518
 H         -5.2626572278        0.7709525636        0.0010226962
 H         -3.9997079600        1.6520535048       -0.8924762787
 H         -1.8490268436        2.0297078915        0.0007486999
 H          0.5889205723        1.8952147828        0.0009650105
 H          0.3973024412       -2.3624949036       -0.0009162154
 H         -2.0906790424       -2.2397309620       -0.0012514907
 H          4.4772028666        1.6419179576       -0.6588754004
 H          4.5302360981       -0.1235385349       -0.3481023079
 H          4.5126412069        1.0237211971        1.0160799099
