  23
        -26.46185391
 C         -6.0779832886       -1.0764245416       -0.1934634449
 C         -5.0830535912       -0.0717477674        0.3741278769
 C         -3.7022232519       -0.2214520092       -0.2596858581
 C         -2.6990551159        0.7814134734        0.3045025502
 C         -1.3202555480        0.6256252547       -0.3314582544
 C         -0.3124153299        1.6171931070        0.2421952337
 C          1.0545340546        1.5188557907       -0.4028031110
 I          2.0568146759       -0.3497632947        0.0328992292
 H         -6.1891766479       -0.9384599603       -1.2668319209
 H         -5.7370464514       -2.0936699433       -0.0136574963
 H         -7.0536199801       -0.9541441548        0.2711112396
 H         -5.0009040667       -0.2131171224        1.4542781228
 H         -5.4517966358        0.9421299980        0.2008361462
 H         -3.7851741188       -0.0810144152       -1.3402083933
 H         -3.3346291641       -1.2354635822       -0.0860569465
 H         -2.6165584561        0.6396173065        1.3848165690
 H         -3.0664078189        1.7964566949        0.1321969471
 H         -1.4006774464        0.7745251127       -1.4116805613
 H         -0.9645085040       -0.3934772350       -0.1624394948
 H         -0.2272503032        1.4698690620        1.3215459465
 H         -0.6770035051        2.6365089021        0.0769800958
 H          1.7214522474        2.2968860872       -0.0397128554
 H          0.9873208798        1.5742762081       -1.4866578091
