  14
        -20.80024439
 C         -2.8116891119        0.2294480040       -0.0007685606
 C         -1.4444203388       -0.4415116009       -0.0004303551
 C         -0.3194369473        0.5892890757        0.0019355796
 C          1.0437500645       -0.0430990908        0.0005810860
 O          1.2666453652       -1.2347477495        0.0000976665
 O          2.0150384265        0.8609928301       -0.0011037153
 H         -3.5981964328       -0.5200249918       -0.0022705584
 H         -2.9302620017        0.8544372009       -0.8824214729
 H         -2.9312400325        0.8520582502        0.8824396921
 H         -1.3424452290       -1.0826737493        0.8771065519
 H         -1.3412344285       -1.0802870477       -0.8795468751
 H         -0.3837664903        1.2372945155       -0.8747992816
 H         -0.3835645118        1.2327681392        0.8820143966
 H          2.9046499534        0.4576857242       -0.0022555368
  14
        -20.80013318
 C         -2.1425195934       -0.1185871882        0.7401152170
 C         -1.5524150673       -0.1337574685       -0.6651906092
 C         -0.2461609920        0.6543832111       -0.7389641513
 C          0.8867688964       -0.0250716686       -0.0185135779
 O          0.9555441145       -1.2085768010        0.2343974958
 O          1.8523075004        0.8255594241        0.3041869148
 H         -1.4537516911       -0.5835410404        1.4422597365
 H         -3.0780437431       -0.6708323540        0.7638823310
 H         -2.3344575976        0.9014914057        1.0648470979
 H         -1.3575318462       -1.1652050770       -0.9643399804
 H         -2.2665470908        0.2992632071       -1.3660970892
 H          0.0712366515        0.7591864355       -1.7794540885
 H         -0.3607427180        1.6568162286       -0.3253390990
 H          2.6055054470        0.3906133303        0.7484777755
  14
        -20.80012769
 C         -2.1404245393       -0.1090285143       -0.7427660391
 C         -1.5526076589       -0.1393111955        0.6632710189
 C         -0.2455861848        0.6466950718        0.7472478524
 C          0.8866582321       -0.0260996499        0.0195276426
 O          0.9601418640       -1.2092421691       -0.2338268668
 O          1.8458512449        0.8295535585       -0.3084384808
 H         -1.4511797257       -0.5678948932       -1.4484652000
 H         -2.3300320602        0.9146339474       -1.0573762840
 H         -3.0768296375       -0.6594723289       -0.7739344747
 H         -2.2674298074        0.2870371914        1.3675436705
 H         -1.3591273961       -1.1739524352        0.9520331115
 H         -0.3587012311        1.6540339355        0.3453336111
 H          0.0711703776        0.7381747789        1.7892355939
 H          2.5990968862        0.3985321169       -0.7565095558
  14
        -20.79977940
 C         -2.7619080324        0.3089986123        0.0063718975
 C         -1.3429880910        0.0683446222       -0.4918426059
 C         -0.3392768684        0.0764507381        0.6715215005
 C          1.0437149070       -0.1748582026        0.1410588488
 O          1.6252152733       -1.2387632453        0.1925265262
 O          1.5697840150        0.8952784214       -0.4325665326
 H         -3.0564686668       -0.4670049607        0.7083076847
 H         -3.4575513883        0.3009772779       -0.8282884044
 H         -2.8320628962        1.2716655287        0.5060532027
 H         -1.2895230747       -0.8958600383       -1.0018526032
 H         -1.0646094381        0.8459051576       -1.2052550982
 H         -0.3586476154        1.0512183763        1.1583322925
 H         -0.5901930935       -0.7056875503        1.3872110537
 H          2.4539297858        0.7272138119       -0.8121424932
  14
        -20.79977207
 C         -2.7626277519        0.3037368034       -0.0055939417
 C         -1.3461692328        0.0381937559        0.4871272508
 C         -0.3357159902        0.1103212435       -0.6683235326
 C          1.0432754045       -0.1664468717       -0.1404413403
 O          1.6025701388       -1.2423508706       -0.1892666300
 O          1.5916884061        0.8944371506        0.4294792238
 H         -2.8314279791        1.2923273461       -0.4519979687
 H         -3.4631531372        0.2489474811        0.8232013826
 H         -3.0517131491       -0.4328694972       -0.7508777411
 H         -1.0735763527        0.7766558990        1.2431659142
 H         -1.2930311805       -0.9520493043        0.9445933245
 H         -0.5809732122       -0.6356094713       -1.4236045324
 H         -0.3543095459        1.1086858590       -1.1042808195
 H          2.4741046952        0.7107870464        0.8061481104
  14
        -20.79965444
 C         -2.7877420644        0.2261903860        0.0235445293
 C         -1.3882109934       -0.1865324916       -0.4125749958
 C         -0.3185860901        0.3963604807        0.5208701835
 C          1.0424907488       -0.0947730600        0.1126183668
 O          1.4016542985       -1.2528693141        0.1600734256
 O          1.8232535227        0.8728629489       -0.3401749594
 H         -2.8844452519        1.3087621928        0.0181332633
 H         -2.9961843333       -0.1347967206        1.0273315521
 H         -3.5287212228       -0.1900291146       -0.6534393499
 H         -1.2987283068       -1.2747160465       -0.4078069242
 H         -1.2035168991        0.1616493879       -1.4308348414
 H         -0.3293403265        1.4847142776        0.4846177108
 H         -0.5133959264        0.0580042801        1.5395478660
 H          2.6992130293        0.5520712854       -0.6317232108
  14
        -20.79957547
 C         -2.7808500230        0.3128831595        0.0002758190
 C         -1.3009736399        0.6764472565       -0.0024466710
 C         -0.4287880742       -0.5758930154        0.0016744334
 C          1.0505860623       -0.3054497932        0.0006213705
 O          1.8938337702       -1.1813930142        0.0024682091
 O          1.3677021239        0.9768186543       -0.0024034556
 H         -3.3902679867        1.2123925656       -0.0030927460
 H         -3.0304144885       -0.2681414341        0.8847910872
 H         -3.0317461606       -0.2756071799       -0.8789072228
 H         -1.0704406203        1.2743515181       -0.8852777930
 H         -1.0688790160        1.2811811287        0.8752975928
 H         -0.6414899461       -1.1909481748        0.8795913523
 H         -0.6416719676       -1.1970130816       -0.8718888352
 H          2.3334385335        1.1242742886       -0.0030302323
  14
        -20.79250356
 C         -2.8110120205        0.1920554049        0.0000942242
 C         -1.4332574545       -0.4583012162       -0.0006160768
 C         -0.3212983135        0.5888842570        0.0003426526
 C          1.0510293720       -0.0350308717        0.0001223846
 O          1.2601676879       -1.2260480472        0.0001800715
 O          2.0785711585        0.8170518157       -0.0001324006
 H         -2.9409175931        0.8122050832        0.8836597098
 H         -3.5859650026       -0.5692030402       -0.0007075930
 H         -2.9409350128        0.8140882051       -0.8821444768
 H         -1.3202115651       -1.0981494921        0.8763836888
 H         -1.3203588149       -1.0965088021       -0.8788370424
 H         -0.4111085367        1.2244434436       -0.8841787436
 H         -0.4113027178        1.2230275838        0.8858757695
 H          1.8134374394        1.7550764853       -0.0001309923
  14
        -20.79229501
 C         -2.1564581057       -0.2430703887       -0.7176533968
 C         -1.5438571686       -0.1066897347        0.6715651643
 C         -0.2623406049        0.7264477825        0.6457217832
 C          0.8925348768       -0.0045565929        0.0044107544
 O          0.9017439122       -1.1863028651       -0.2499977980
 O          1.9710671822        0.7351255979       -0.2644870184
 H         -1.4567732315       -0.7368980159       -1.3884246840
 H         -2.4044455868        0.7334219252       -1.1277468052
 H         -3.0640788675       -0.8387779241       -0.6739909617
 H         -2.2622861723        0.3660600885        1.3422993406
 H         -1.3106674166       -1.0992938241        1.0606770892
 H         -0.4382719753        1.6616061360        0.1105156498
 H          0.0420888634        0.9667908487        1.6678228985
 H          1.8771827116        1.6744334518       -0.0224107819
  14
        -20.79140871
 C         -2.7635159380        0.2711762931       -0.0036319022
 C         -1.3469338128       -0.0192552274       -0.4836411921
 C         -0.3315478244        0.1415050061        0.6602131910
 C          1.0525026837       -0.1451413503        0.1385108043
 O          1.5687034914       -1.2394141148        0.1813667878
 O          1.6982435450        0.8687773434       -0.4335920931
 H         -3.4681648746        0.1438063412       -0.8207595295
 H         -2.8423722775        1.2909751233        0.3643462545
 H         -3.0407760272       -0.4076312612        0.7986398423
 H         -1.2863642506       -1.0405139165       -0.8646270623
 H         -1.0936508939        0.6554779294       -1.3034222403
 H         -0.3913737434        1.1495893012        1.0710263384
 H         -0.5586802070       -0.5807429450        1.4443371520
 H          1.2135648337        1.7137009867       -0.3971621874
  14
        -20.79138243
 C         -2.7627355055        0.2755803901        0.0036392985
 C         -1.3461818085       -0.0132985592        0.4845437976
 C         -0.3322391562        0.1304035004       -0.6627797488
 C          1.0525761360       -0.1476014380       -0.1386439964
 O          1.5757973869       -1.2385355616       -0.1805813835
 O          1.6910608875        0.8704746621        0.4343770263
 H         -2.8388817696        1.2908350416       -0.3772424576
 H         -3.4660109805        0.1612000631        0.8238445775
 H         -3.0440898217       -0.4125164505       -0.7892163549
 H         -1.0897366168        0.6709657006        1.2953180064
 H         -1.2878426215       -1.0299055209        0.8782260247
 H         -0.5593549170       -0.6033083211       -1.4362481627
 H         -0.3924000611        1.1323725306       -1.0884220014
 H          1.2010103315        1.7122722081        0.3977621097
  14
        -20.79118894
 C         -2.7904175648        0.1760167765       -0.0245070537
 C         -1.3838323407       -0.2133095153        0.4116168307
 C         -0.3209892865        0.4136689878       -0.5025939833
 C          1.0496810772       -0.0749792663       -0.1048751537
 O          1.3716553648       -1.2413568515       -0.1549245920
 O          1.9218113162        0.8290259903        0.3341167002
 H         -3.5247540022       -0.2741398799        0.6376587625
 H         -2.9849218250       -0.1668149632       -1.0375007873
 H         -2.9158689420        1.2554672233        0.0058116141
 H         -1.2157779120        0.1117580268        1.4402929242
 H         -1.2681193494       -1.2983128292        0.3841688382
 H         -0.5052431495        0.0825624371       -1.5264501382
 H         -0.3873216019        1.5004678424       -0.4632478234
 H          1.5812892186        1.7426072314        0.3407130664
