  12
  -16.9827334200000       9.078143555631811E-002 !mtd6
 C         -1.8977502775        0.0454081174       -0.4450359740
 C         -0.8704761973       -0.2293049221        0.6531611801
 C          0.5376151860       -0.0885473237        0.1014798070
 O          1.2355944735       -1.0242156373       -0.2127937217
 N          0.9500025717        1.1952735490       -0.0329088068
 H         -1.8052248829        1.0618199844       -0.8225632466
 H         -1.7508296552       -0.6431051425       -1.2735360819
 H         -2.9056119693       -0.0884979265       -0.0590652543
 H         -0.9895176044       -1.2493108966        1.0183626905
 H         -1.0129588670        0.4630341181        1.4849694779
 H          0.3705820019        1.9742930606        0.2209584926
 H          1.8595109215        1.3762246600       -0.4234272562
  12
  -16.9827334000000       9.077951428789510E-002 !mtd2
 C         -1.8978196586        0.0447558656       -0.4452097074
 C         -0.8705334211       -0.2287768900        0.6532900470
 C          0.5375552426       -0.0883908490        0.1015386631
 O          1.2352417800       -1.0242314707       -0.2131607124
 N          0.9504386684        1.1953286036       -0.0326409290
 H         -2.9057538055       -0.0881588462       -0.0590643798
 H         -1.8048332721        1.0605580969       -0.8242006462
 H         -1.7511681544       -0.6449841167       -1.2727299638
 H         -0.9894464696       -1.2484706813        1.0194006527
 H         -1.0132516309        0.4643112262        1.4844489641
 H          0.3718764443        1.9746700037        0.2224311160
 H          1.8602881599        1.3756340461       -0.4226506986
  12
  -16.9827334000000       9.077951428789510E-002 !md7
 C         -1.9028919510        0.0456896661        0.4229706897
 C         -0.8629109892       -0.2292764847       -0.6630866344
 C          0.5387804963       -0.0885962862       -0.0953047295
 O          1.2334962179       -1.0243990013        0.2259719271
 N          0.9492046955        1.1952206657        0.0451137468
 H         -1.7656649351       -0.6427396724        1.2532201355
 H         -1.8146163667        1.0621312925        0.8014262576
 H         -2.9062326688       -0.0881367509        0.0252847993
 H         -0.9957616994        0.4629516047       -1.4965951712
 H         -0.9777904704       -1.2493280521       -1.0294981258
 H          0.3730462719        1.9742828959       -0.2159436627
 H          1.8545977793        1.3758315934        0.4452467037
  12
  -16.9827333900000       9.077855366876092E-002 !gc
 C         -1.8975946959        0.0451892221       -0.4451888894
 C         -0.8704962282       -0.2291213795        0.6532889128
 C          0.5375647564       -0.0884995636        0.1014900507
 O          1.2353852467       -1.0242575056       -0.2130087282
 N          0.9500254360        1.1953010510       -0.0328662211
 H         -1.7505414795       -0.6436076103       -1.2734328819
 H         -2.9055567811       -0.0884702197       -0.0593516550
 H         -1.8048305761        1.0614401277       -0.8230579000
 H         -0.9895426428       -1.2490300672        1.0187935668
 H         -1.0131612898        0.4634981017        1.4848540681
 H          0.3717081838        1.9744044958        0.2234289467
 H          1.8598636769        1.3763575968       -0.4225360945
  12
  -16.9827333800000       9.077759305979193E-002 !mtd1
 C         -1.9025679123        0.0445141870        0.4232917116
 C         -0.8628726422       -0.2280587906       -0.6637324924
 C          0.5386889364       -0.0883775679       -0.0954716193
 O          1.2328976367       -1.0246720742        0.2255596329
 N          0.9495409878        1.1953023933        0.0457832422
 H         -1.8145143952        1.0603472494        0.8034907772
 H         -2.9060320355       -0.0890324255        0.0258814934
 H         -1.7647123956       -0.6452264449        1.2523083732
 H         -0.9958849891        0.4659169643       -1.4957864288
 H         -0.9777626249       -1.2474068315       -1.0322563918
 H          0.3736750466        1.9748770928       -0.2146779350
 H          1.8544103627        1.3756067991        0.4472817115
  12
  -16.9827333700000       9.077663246098797E-002 !mtd6
 C         -1.9026586859        0.0439275124        0.4233940404
 C         -0.8628808294       -0.2274547166       -0.6638556746
 C          0.5387387836       -0.0882195965       -0.0955107651
 O          1.2326023290       -1.0247028921        0.2254108369
 N          0.9497818572        1.1952460065        0.0461900060
 H         -2.9061105103       -0.0882216289        0.0254323664
 H         -1.7654965280       -0.6474975187        1.2511365702
 H         -1.8138375611        1.0589623835        0.8054571310
 H         -0.9959278509        0.4673071071       -1.4952125973
 H         -0.9776748502       -1.2463834103       -1.0333660751
 H          0.3746721796        1.9748259949       -0.2156621599
 H          1.8554797419        1.3752724127        0.4458805908
  12
  -16.9825263000000       7.291406055063818E-002 !md6
 C         -1.8801595427       -0.6910969038       -0.1879526004
 C         -0.9610972240        0.4557127250        0.2090623968
 C          0.5027471250        0.0913136164        0.0148185403
 O          0.8945012244       -0.9717211980       -0.4035706396
 N          1.3582009350        1.0873528490        0.3601138262
 H         -1.7241971934       -0.9497058831       -1.2317380003
 H         -1.6594754507       -1.5705461524        0.4108698203
 H         -2.9216687683       -0.4148356685       -0.0425245346
 H         -1.1129741799        0.7182548299        1.2590011040
 H         -1.1768335975        1.3416110910       -0.3934794854
 H          1.0410185293        1.9736059654        0.7080188656
 H          2.3477048060        0.9327325061        0.2635068682
  12
  -16.9825261800000       7.290480226460157E-002 !mtd10
 C         -1.8802993227       -0.6890134018       -0.1933582065
 C         -0.9607504024        0.4525926056        0.2172508550
 C          0.5027694438        0.0909538543        0.0156896464
 O          0.8944414351       -0.9712367010       -0.4048161457
 N          1.3580800200        1.0880523278        0.3582633545
 H         -1.6558551862       -1.5771566891        0.3910434339
 H         -2.9214138287       -0.4161665674       -0.0390674368
 H         -1.7288547360       -0.9315781596       -1.2416769991
 H         -1.1101937867        0.7002134762        1.2712183412
 H         -1.1782563580        1.3468067291       -0.3721450264
 H          1.0406278256        1.9734214452        0.7082504012
 H          2.3474164002        0.9348054087        0.2579752314
  12
  -16.9825261600000       7.290325933108767E-002 !mtd2
 C         -1.8801761570       -0.6904668552       -0.1896074284
 C         -0.9609540087        0.4547774693        0.2115556715
 C          0.5028421946        0.0912044520        0.0150360478
 O          0.8944604549       -0.9716804480       -0.4039429981
 N          1.3580699305        1.0876004270        0.3595818310
 H         -2.9214257406       -0.4160698758       -0.0389599333
 H         -1.7275046728       -0.9424869592       -1.2355413767
 H         -1.6564500079       -1.5732435433        0.4031626535
 H         -1.1120204353        0.7129260860        1.2626527630
 H         -1.1772856951        1.3430846728       -0.3871819214
 H          1.0404779893        1.9731168333        0.7090292799
 H          2.3476088233        0.9346400440        0.2612134274
  12
  -16.9821487400000       4.889863346356179E-002 !gc
 C         -1.8839892075       -0.5727686879        0.2465311586
 C         -0.9257566605        0.3938135923       -0.4443986297
 C          0.5107983876        0.0670950055       -0.0710684407
 O          0.9824626368       -1.0435570022       -0.1510234262
 N          1.2417598638        1.1236158294        0.3610478511
 H         -1.5754028477       -1.5948496054        0.0435775076
 H         -1.8708805224       -0.4170968110        1.3230567885
 H         -2.8996374944       -0.4299954249       -0.1143783872
 H         -1.1672811064        1.4261814801       -0.1879853477
 H         -1.0141309289        0.2754777064       -1.5268103202
 H          0.8669679922        2.0517532632        0.4332614784
 H          2.2043549783        0.9721761884        0.6140431455
  12
  -16.9819015700000       3.764482262810928E-002 !md4
 C         -1.9581122837        0.4587458641       -0.0626349140
 C         -0.8907218022       -0.6108153326        0.1249057755
 C          0.5598461711       -0.1662683779        0.0241047118
 O          1.4749483183       -0.9492745120        0.1554810975
 N          0.7794419488        1.1456069135       -0.2189721199
 H         -2.9430151208        0.0062449206        0.0319634815
 H         -1.8769968661        1.2357751238        0.6954223801
 H         -1.8953274990        0.9109695839       -1.0508336268
 H         -1.0220698005       -1.4030952812       -0.6159999519
 H         -1.0013975643       -1.0806031611        1.1052141227
 H          0.0387922781        1.8118751254       -0.3308846138
 H          1.7323949449        1.4607983135       -0.2892765624
  12
  -16.9819012100000       3.763048455871219E-002 !md5
 C         -1.9574859824        0.4634396814       -0.0294382189
 C         -0.8911369533       -0.6184195640        0.0759749840
 C          0.5596918882       -0.1670600858        0.0188566513
 O          1.4743926777       -0.9460011296        0.1747279357
 N          0.7798781963        1.1455025044       -0.2200139737
 H         -1.8558650092        1.1957709314        0.7693975421
 H         -1.9145758410        0.9710961342       -0.9915039098
 H         -2.9422051692        0.0095469820        0.0597644448
 H         -1.0191269648       -1.3476083704       -0.7279883949
 H         -1.0062354861       -1.1663322802        1.0140069835
 H          0.0395386815        1.8081253272       -0.3532305348
 H          1.7329302217        1.4649728651       -0.2658452095
  12
  -16.9819012000000       3.763008635693970E-002 !mtd9
 C         -1.9577388527        0.4631107649       -0.0317159556
 C         -0.8911076194       -0.6179026243        0.0792470318
 C          0.5597122860       -0.1669522292        0.0195355358
 O          1.4745097464       -0.9462180641        0.1733193695
 N          0.7799545243        1.1454881625       -0.2200085648
 H         -1.9135909629        0.9670137524       -0.9956934341
 H         -2.9424852924        0.0093562810        0.0580354173
 H         -1.8574240672        1.1985476876        0.7644273630
 H         -1.0192480845       -1.3513559148       -0.7208013915
 H         -1.0060118004       -1.1609120050        1.0201869381
 H          0.0396564587        1.8085585265       -0.3512570088
 H          1.7330658849        1.4644802304       -0.2679517912
  12
  -16.9818972400000       3.747272923134002E-002 !gc
 C         -1.9570125521        0.4265135290       -0.1597240501
 C         -0.8874637554       -0.5712817034        0.2655603644
 C          0.5592483722       -0.1615924630        0.0394448193
 O          1.4657095145       -0.9633899674        0.0913549731
 N          0.7847023704        1.1490397115       -0.2058408819
 H         -2.9396761553       -0.0267075609       -0.0480835015
 H         -1.9377957583        1.3226885708        0.4581690858
 H         -1.8347515755        0.7082046066       -1.2037363510
 H         -1.0258607056       -1.5168880218       -0.2624112621
 H         -0.9855684414       -0.7902705583        1.3322553473
 H          0.0500523544        1.8297946545       -0.2497323285
 H          1.7347266170        1.4487756224       -0.3473707735
  12
  -16.9818935800000       3.732787829336037E-002 !md2
 C         -1.9489147209        0.4368334342        0.1416047049
 C         -0.8873494375       -0.6076253420       -0.1848581679
 C          0.5566954173       -0.1642488207       -0.0115698618
 O          1.4447294013       -0.9438606645        0.2522933071
 N          0.7989930685        1.1536743337       -0.1965483831
 H         -2.9298628099       -0.0330169491        0.1535912358
 H         -1.7715574749        0.8742160593        1.1218196715
 H         -1.9769066574        1.2319750867       -0.6013490271
 H         -0.9962330568       -0.9387140177       -1.2213451122
 H         -1.0192729589       -1.4871631321        0.4473732671
 H          0.0766630780        1.8131806699       -0.4168244490
 H          1.7452980198        1.4824811228       -0.1034306288
