! pbe def2-sv(p) def2/J RI DEFGRID1 loosescf d4 GCP(DFT/SV(P)) printgap
%output
    printlevel normal
end
* xyz 0 1
C -2.6447341073 -0.7965333269 1.0149894777
C -2.2056603646 0.1586963346 -0.0929267366
C -3.1330139133 0.0089461544 -1.2988364332
C -0.7523485445 -0.0908179751 -0.5174507447
C 0.2597898263 0.3621656664 0.5336301885
C 1.7418746477 0.1521008908 0.1698264946
C 2.0582190496 -1.3369735637 0.0094741521
C 2.1072839045 0.8938298091 -1.1183001926
C 2.5891283444 0.7141885955 1.3178402286
H -2.0410303626 -0.6670876989 1.9090041803
H -2.5518392202 -1.8280583655 0.6814726274
H -3.6837223774 -0.6145793624 1.2804672381
H -2.2870914447 1.1864626589 0.279684193
H -2.8676145422 0.7178528898 -2.0798299593
H -3.060047422 -0.9965140751 -1.708066934
H -4.1664603815 0.1878310451 -1.0111154217
H -0.6283595502 -1.1549544194 -0.7237668122
H -0.5706597589 0.4549797431 -1.4446414211
H 0.0678120936 -0.1696751255 1.4676032761
H 0.1014956479 1.4268881897 0.726037115
H 1.5372104871 -1.7576674701 -0.8462563987
H 3.1258159651 -1.4786178658 -0.1437002103
H 1.7639118886 -1.8882700488 0.8997442818
H 3.1810799639 0.8449430302 -1.2853336457
H 1.6134097628 0.4508391801 -1.9788922506
H 1.8184798017 1.9404200587 -1.052193716
H 3.6484985527 0.5758233373 1.1139378713
H 2.352300929 0.2096029033 2.2519545025
H 2.4020515181 1.7780047821 1.4464513385
*
