  11
  -15.6361718800000       0.213782721118253      !md2
 C         -2.5180002976        0.1984512992        0.0000675844
 C         -1.1594064734       -0.3975369947       -0.0000434060
 C         -0.0195370658        0.2948262069       -0.0001223954
 C          1.2864561027       -0.3494462741       -0.0000282328
 O          2.3461211557        0.2253760678        0.0000755098
 H         -2.4753047360        1.2841975712       -0.0003880337
 H         -3.0705638486       -0.1374532837        0.8775118496
 H         -3.0711396946       -0.1381902746       -0.8766980352
 H         -1.1207992484       -1.4808702907        0.0000151043
 H         -0.0185230479        1.3762541630       -0.0001870395
 H          1.2394512777       -1.4581813053        0.0000543948
  11
  -15.6361718700000       0.213780458892710      !gc
 C         -2.5180142458        0.1984232005        0.0000477184
 C         -1.1593983639       -0.3975131025        0.0000589934
 C         -0.0195289272        0.2948555380       -0.0001697510
 C          1.2864447695       -0.3494464379       -0.0001382264
 O          2.3461290444        0.2253589207        0.0001646318
 H         -3.0710043503       -0.1381480615       -0.8768669422
 H         -2.4753334014        1.2841854409       -0.0002894596
 H         -3.0707026974       -0.1375802228        0.8773466837
 H         -1.1207672119       -1.4808286473        0.0001738263
 H         -0.0184820619        1.3762857099       -0.0001787544
 H          1.2393928477       -1.4581829012       -0.0004002645
  11
  -15.6361718400000       0.213773672358909      !gc
 C         -2.5180283973        0.1982401443        0.0001275516
 C         -1.1592853147       -0.3973618191       -0.0000738358
 C         -0.0195250165        0.2950941014       -0.0002075122
 C          1.2863544428       -0.3493884481       -0.0000072229
 O          2.3461251348        0.2252000604        0.0001125871
 H         -3.0700630530       -0.1370654789        0.8781179871
 H         -3.0713074901       -0.1396159074       -0.8760378289
 H         -2.4759002844        1.2840737859       -0.0014460992
 H         -1.1203838647       -1.4806987136        0.0001111808
 H         -0.0184426143        1.3765284534       -0.0006853649
 H          1.2391137515       -1.4581244248        0.0000717623
  11
  -15.6356226600000       0.119555225956990      !gc
 C         -2.3896478244        0.2124048468        0.0025620519
 C         -0.9121532238        0.3218539246        0.0043194396
 C         -0.0588659357       -0.7053207224       -0.0098894257
 C          1.3862230303       -0.4950749796       -0.0067476282
 O          1.9382756343        0.5777626806        0.0085054398
 H         -2.7129674845       -0.8254763257       -0.0120941414
 H         -2.7974208592        0.7273118941       -0.8671880083
 H         -2.7976717162        0.7026212409        0.8863501846
 H         -0.5001399259        1.3236637176        0.0183828316
 H         -0.4072855187       -1.7282669987       -0.0242440977
 H          1.9764728493       -1.4329972516       -0.0199664426
  11
  -15.6356226500000       0.119553960836570      !gc
 C         -2.3896279198        0.2124763587        0.0000233070
 C         -0.9121226138        0.3218435881       -0.0002818194
 C         -0.0588704300       -0.7054525158        0.0003423184
 C          1.3862223791       -0.4951221379        0.0001021975
 O          1.9382234009        0.5778502450       -0.0001708739
 H         -2.7973765499        0.7161256481        0.8763554195
 H         -2.7130312594       -0.8254812541        0.0012099006
 H         -2.7975689766        0.7141195999       -0.8773508200
 H         -0.5000162482        1.3237187408       -0.0009974980
 H         -0.4072511253       -1.7285089127        0.0009583511
 H          1.9765199982       -1.4331040188        0.0003205207
  11
  -15.6356226500000       0.119553960836570      !mtd4
 C         -2.3896380481        0.2124523662        0.0009149951
 C         -0.9121383669        0.3218558211        0.0011890163
 C         -0.0588697064       -0.7054215719       -0.0031216567
 C          1.3862240619       -0.4951105472       -0.0021345142
 O          1.9382465976        0.5778282745        0.0027131082
 H         -2.7976063440        0.7182452255       -0.8740958540
 H         -2.7973834243        0.7119635069        0.8796156959
 H         -2.7129911003       -0.8254982335       -0.0027665904
 H         -0.5000604991        1.3237241357        0.0052923695
 H         -0.4072589935       -1.7284591477       -0.0073719838
 H          1.9764877248       -1.4331236682       -0.0061776709
