  22
        -26.20410089
 C         -2.0109479322        0.6187924012       -0.0459593925
 C         -1.7072851980       -0.7830306345        0.4823455641
 C         -0.7384060769       -1.5564875248       -0.4146407831
 C          0.7430762841       -1.3558005865       -0.0874802073
 C          1.1565802687        0.0723659689        0.2982961509
 C          0.4530278935        1.1639485020       -0.5213848431
 C         -0.8653620050        1.6165930574        0.1029347742
 O          2.5640189810        0.2021716032        0.2177300957
 H         -2.8778849564        1.0169860638        0.4874652121
 H         -2.2868680584        0.5418734634       -1.1009239812
 H         -1.3145871491       -0.7250941269        1.4980800568
 H         -2.6505516443       -1.3330556259        0.5271506295
 H         -0.9485787011       -2.6254503291       -0.3343458308
 H         -0.9296444567       -1.2747328584       -1.4522300394
 H          1.0302062181       -2.0159926635        0.7335364108
 H          1.3319031542       -1.6573862663       -0.9601470557
 H          0.9453198625        0.2439235860        1.3588348786
 H          1.1281853520        2.0235108057       -0.5528238171
 H          0.2920094068        0.8276902725       -1.5476870909
 H         -0.6979541446        1.8192128929        1.1634100224
 H         -1.1706613123        2.5562702695       -0.3643533064
 H          2.8328036123        0.0578068283       -0.6970031722
