! pbe def2-sv(p) def2/J RI DEFGRID1 loosescf d4 GCP(DFT/SV(P)) printgap
%output
    printlevel normal
end
* xyz 0 1
C -2.1784866411 0.3133540653 -1.135288958
C -2.1596428363 -0.6031968518 0.0818602553
C -1.224052155 -0.1742910715 1.2171852275
C 0.2874686839 -0.0805967159 0.9457540883
C 0.8963758867 -1.1790741124 0.0458217186
C 1.7681767922 -0.4541379429 -0.9891951456
C 2.0578130749 0.9062089442 -0.3600140356
C 0.7375668172 1.2502340261 0.3208560821
H -2.9688234804 0.0054357875 -1.8171391118
H -2.3687079679 1.3421793717 -0.837149621
H -1.2361742675 0.2693196466 -1.6732456115
H -3.1683317378 -0.6393675586 0.5025859749
H -1.9165841749 -1.6184533751 -0.2370178029
H -1.549771627 0.802303331 1.5847690266
H -1.3735571101 -0.8899334482 2.0304878744
H 0.7717423927 -0.1469275822 1.9267684569
H 1.5042321502 -1.8565828565 0.6460464255
H 0.1327512064 -1.7772941849 -0.4443569832
H 2.6765932182 -1.0080612075 -1.2222643578
H 1.2127458087 -0.3136801505 -1.9180232801
H 2.8494722861 0.8120550755 0.3854195576
H 2.3609897112 1.6515736225 -1.0941389552
H 0.8462249633 2.029852611 1.0746499349
H 0.0199629032 1.5937892747 -0.4205848625
*
