! pbe def2-sv(p) def2/J RI DEFGRID1 loosescf d4 GCP(DFT/SV(P)) printgap
%output
    printlevel normal
end
* xyz 0 1
C -1.3634810396 -0.3619040421 -0.4244857005
C -0.0121797662 -0.061978118 0.2460309278
C 1.1184382897 -0.842765162 -0.4375247527
O 2.3938237617 -0.5087579689 0.0521786222
O 0.2266658046 1.3303978842 0.2560029888
O -2.4229127078 0.269078844 0.2533841532
H -1.5716659214 -1.4323595497 -0.398415167
H -1.3345265404 -0.030249356 -1.4723920536
H -0.0789338572 -0.3411942839 1.3041890516
H 1.1439084484 -0.5973807993 -1.5028543194
H 0.9245856589 -1.917594593 -0.332773128
H 2.4364330665 -0.6906769061 1.0011302408
H 0.5649001463 1.6056534373 -0.6080641587
H -2.1558167422 1.1839447618 0.435326457
*
