! pbe def2-sv(p) def2/J RI DEFGRID1 loosescf d4 GCP(DFT/SV(P)) printgap
%output
    printlevel normal
end
* xyz 0 1
C -2.8976801779 -0.5953870084 -0.5861079244
C -2.1165913703 -0.1606063532 0.6492343756
C -1.3284989 1.1332437527 0.4422815687
C -0.2035233099 1.0194751616 -0.5676115425
Br 1.194591968 -0.2464974756 0.0220281816
H -3.5456159664 0.2073274581 -0.9310778154
H -2.232193521 -0.8779267265 -1.3982326701
H -3.5155504662 -1.4575220059 -0.349398971
H -1.4315220781 -0.9576454156 0.9474741035
H -2.8146546809 -0.0032307125 1.4732692498
H -2.0030327244 1.9143998838 0.08250902
H -0.9172553258 1.4587333663 1.4004730981
H 0.3119526491 1.9686374186 -0.7009053995
H -0.5458740738 0.6445360784 -1.5291491967
*
