  14
        -20.78343624
 C         -2.4910271455       -0.0714526651        0.0114573915
 C         -1.2279727026        0.7772286171       -0.0102884918
 C          0.0203579828       -0.0749504334       -0.0043206408
 O          0.0556673697       -1.2753437752       -0.0058194121
 O          1.1191982212        0.6964572575        0.0019467304
 C          2.3643902815        0.0117274154        0.0060212954
 H         -3.3734460926        0.5628513330        0.0007449994
 H         -2.5175125667       -0.7282410178       -0.8539016820
 H         -2.5127291905       -0.6913481866        0.9037787166
 H         -1.1848219489        1.4392131697        0.8570023888
 H         -1.1958088919        1.4074623602       -0.9016186982
 H          3.1336444517        0.7793808150        0.0135366400
 H          2.4554799344       -0.6149220619       -0.8834639875
 H          2.4454683768       -0.6223657929        0.8912004857
