  14
        -20.78343624
 C         -2.4910271455       -0.0714526651        0.0114573915
 C         -1.2279727026        0.7772286171       -0.0102884918
 C          0.0203579828       -0.0749504334       -0.0043206408
 O          0.0556673697       -1.2753437752       -0.0058194121
 O          1.1191982212        0.6964572575        0.0019467304
 C          2.3643902815        0.0117274154        0.0060212954
 H         -3.3734460926        0.5628513330        0.0007449994
 H         -2.5175125667       -0.7282410178       -0.8539016820
 H         -2.5127291905       -0.6913481866        0.9037787166
 H         -1.1848219489        1.4392131697        0.8570023888
 H         -1.1958088919        1.4074623602       -0.9016186982
 H          3.1336444517        0.7793808150        0.0135366400
 H          2.4554799344       -0.6149220619       -0.8834639875
 H          2.4454683768       -0.6223657929        0.8912004857
  14
        -20.78343305
 C         -2.4823271025       -0.0525443818       -0.1529178757
 C         -1.2308481666        0.7637746611        0.1390452407
 C          0.0200383943       -0.0809711248        0.0572552245
 O          0.0625143278       -1.2811569091        0.0747012695
 O          1.1115675707        0.6955584298       -0.0251873918
 C          2.3596811392        0.0181227079       -0.0793252511
 H         -2.4661834937       -0.4187002446       -1.1762035779
 H         -2.5295841011       -0.9111024507        0.5115105024
 H         -3.3724079732        0.5547946835       -0.0117580218
 H         -1.2737005936        1.1760660221        1.1505805096
 H         -1.1270284137        1.6013207137       -0.5519990062
 H          2.3890298188       -0.6534700723       -0.9396745259
 H          2.5124556605       -0.5686448219        0.8287167769
 H          3.1206494895        0.7888499313       -0.1688321735
  14
        -20.78339166
 C         -2.4625425123       -0.0159327598        0.2630804156
 C         -1.2364195542        0.7380918750       -0.2359346966
 C          0.0190429970       -0.0936067967       -0.1025326861
 O          0.0722496785       -1.2934264143       -0.1302122321
 O          1.0965220912        0.6921014658        0.0405310080
 C          2.3519625504        0.0332960984        0.1397983232
 H         -2.5252494649       -0.9836236657       -0.2274197141
 H         -2.3965692858       -0.1820117640        1.3353715687
 H         -3.3670043933        0.5484116015        0.0521265860
 H         -1.0925876031        1.6769154625        0.2991190891
 H         -1.3497586991        0.9717961224       -1.2980354964
 H          3.0653760264        0.7817088674        0.4748380586
 H          2.6469196236       -0.3643930843       -0.8333292530
 H          2.2908637753       -0.7905268786        0.8533475926
  14
        -20.78334838
 C         -2.4776530056       -0.0370789248       -0.1915543560
 C         -1.2298892697        0.7555225599        0.1737982831
 C          0.0189532651       -0.0909227059        0.0738820699
 O          0.0560289944       -1.2913722788        0.0928441445
 O          1.1059220593        0.6880535709       -0.0318640194
 C          2.3674146932        0.0361182693       -0.0993867424
 H         -2.4464774704       -0.3337362307       -1.2367687774
 H         -2.5352251907       -0.9377712017        0.4136961448
 H         -3.3691517559        0.5611089667       -0.0236954422
 H         -1.2948917621        1.1058574293        1.2074289826
 H         -1.1073808819        1.6315507813       -0.4639903731
 H          2.2616408720       -0.9361260084       -0.5843737719
 H          2.7640858851       -0.1063470062        0.9078158577
 H          3.0268397654        0.6840483709       -0.6725787396
  14
        -20.78329455
 C         -2.4803313026       -0.0361284485       -0.1810637786
 C         -1.2271997479        0.7569011070        0.1641427812
 C          0.0181005780       -0.0951451289        0.0680257732
 O          0.0473949391       -1.2958303169        0.0884567775
 O          1.1064284413        0.6828809934       -0.0286468335
 C          2.3765503792        0.0462836492       -0.0946796385
 H         -2.4547014143       -0.3529972571       -1.2204771635
 H         -2.5404396895       -0.9247258805        0.4414603261
 H         -3.3680864305        0.5700013721       -0.0212812027
 H         -1.2836327568        1.1235178294        1.1925491712
 H         -1.1061865708        1.6228117449       -0.4876614151
 H          2.8720818093        0.3682803241       -1.0104411568
 H          2.2478824057       -1.0376705333       -0.0960242295
 H          2.9626996837        0.3536678432        0.7717282923
  14
        -20.78322087
 C         -2.1540576710        0.4658713041       -0.6937916189
 C         -1.3379030677        0.3830084384        0.5976958742
 C         -0.0008629659       -0.2539646002        0.3006891075
 O          0.2355430544       -1.4317609038        0.3417470934
 O          0.9030912902        0.6691064845       -0.0528455087
 C          2.1910220078        0.1846130599       -0.4060169803
 H         -3.1298488363        0.8998846617       -0.4909107000
 H         -1.6423746257        1.0863120159       -1.4257683882
 H         -2.2949084596       -0.5271469334       -1.1140104104
 H         -1.8609680595       -0.2342828818        1.3280774409
 H         -1.1759569699        1.3817488915        1.0021528161
 H          2.6274366967       -0.3711834622        0.4262736871
 H          2.7926164327        1.0590190496       -0.6399424486
 H          2.1227118750       -0.4775045527       -1.2715580226
  14
        -20.78320757
 C         -2.2222180565        0.3385221542        0.6578654808
 C         -1.3112681443        0.4785859505       -0.5630698560
 C          0.0046840088       -0.2093776328       -0.2850040567
 O          0.1946256253       -1.3952443210       -0.3351172884
 O          0.9490102677        0.6762201842        0.0583784623
 C          2.2243863115        0.1417101459        0.3851776223
 H         -2.3713060029       -0.7122919812        0.8940056993
 H         -1.7799026534        0.8309685941        1.5207939866
 H         -3.1890753733        0.7926550500        0.4565194537
 H         -1.1262596702        1.5298792441       -0.7807349309
 H         -1.7764238964       -0.0024831255       -1.4240344733
 H          2.6076174068       -0.4561013903       -0.4440177652
 H          2.1533337289       -0.4927119744        1.2708679105
 H          2.8724828112        0.9928949019        0.5761310550
  14
        -20.78320530
 C         -2.2360347011        0.3155872644        0.6470679781
 C         -1.3064764627        0.4953147816       -0.5543332502
 C          0.0058489645       -0.2012273921       -0.2802166777
 O          0.1870351575       -1.3885513953       -0.3291445784
 O          0.9579747198        0.6777451488        0.0583233434
 C          2.2312638837        0.1339811818        0.3781193641
 H         -1.8094648897        0.7831380767        1.5315198258
 H         -3.2014025817        0.7722162858        0.4442508403
 H         -2.3842298936       -0.7424467199        0.8488842808
 H         -1.1186753310        1.5527994232       -0.7366834351
 H         -1.7585095716        0.0417444337       -1.4371009236
 H          2.6230161177       -0.4341975942       -0.4678636431
 H          2.1533331311       -0.5310448541        1.2405493061
 H          2.8762962879        0.9790859342        0.6036600240
  14
        -20.78316377
 C         -2.3029807442        0.2142596649        0.5807090557
 C         -1.2829419937        0.5716115631       -0.5002553610
 C          0.0101738375       -0.1695746390       -0.2493929349
 O          0.1455893468       -1.3631440051       -0.2935857554
 O          0.9995498282        0.6793286250        0.0570638755
 C          2.2715676167        0.1095470041        0.3354754695
 H         -1.9571304434        0.5477543033        1.5563954048
 H         -3.2566597165        0.6904620108        0.3689193535
 H         -2.4465413665       -0.8627917325        0.6126766470
 H         -1.0836228949        1.6425820427       -0.5083890124
 H         -1.6645308790        0.2643663785       -1.4754355228
 H          2.7875413953       -0.1259103390       -0.5975589874
 H          2.1550000561       -0.8067855141        0.9171817354
 H          2.8297514521        0.8554308925        0.8961692240
  14
        -20.78314737
 C         -2.3549858775        0.1447893737        0.5124699783
 C         -1.2644726207        0.6253352236       -0.4429768650
 C          0.0118692096       -0.1518752041       -0.2140299111
 O          0.1093851092       -1.3491235932       -0.2598121072
 O          1.0308714001        0.6757097968        0.0504046733
 C          2.3089783721        0.1019609898        0.2951314703
 H         -2.4896560370       -0.9287168487        0.4079750070
 H         -2.0816120314        0.3605169571        1.5427125829
 H         -3.2955448265        0.6423501246        0.2910164339
 H         -1.0622404259        1.6876920536       -0.3104702488
 H         -1.5800542300        0.4466998469       -1.4729511302
 H          2.5608496846        0.2394264754        1.3475193213
 H          3.0335652813        0.6216217727       -0.3305316400
 H          2.2896263313       -0.9624668735        0.0542471714
  14
        -20.78314244
 C         -2.3028583345        0.2159044000        0.5814887417
 C         -1.2823828465        0.5710786647       -0.4998869420
 C          0.0092480426       -0.1716823423       -0.2464799586
 O          0.1423157837       -1.3653809639       -0.2959141486
 O          1.0004809455        0.6773172983        0.0528416571
 C          2.2741961375        0.1142938616        0.3385256819
 H         -1.9590633121        0.5545153152        1.5561043389
 H         -3.2575622440        0.6889143848        0.3665691028
 H         -2.4437172274       -0.8614095624        0.6178171214
 H         -1.0823152237        1.6419466095       -0.5102110957
 H         -1.6640012459        0.2619215978       -1.4744600856
 H          3.0172108006        0.8604363087        0.0659006851
 H          2.4161658004       -0.8029908897       -0.2360221390
 H          2.3458610709       -0.1154884781        1.4035010220
  14
        -20.78320261
 C         -2.2514956764        0.2912095091        0.6339364117
 C         -1.3012208292        0.5132673151       -0.5437130986
 C          0.0069104825       -0.1929152852       -0.2737222739
 O          0.1787785061       -1.3816354381       -0.3221990035
 O          0.9678198321        0.6791484826        0.0578770843
 C          2.2391564785        0.1262476083        0.3697174075
 H         -3.2141035357        0.7531007877        0.4299790548
 H         -2.4005329621       -0.7734328327        0.7964364999
 H         -1.8417231043        0.7284541106        1.5415556021
 H         -1.1103820157        1.5761851730       -0.6871159081
 H         -1.7381764050        0.0908778905       -1.4494292198
 H          2.6181858135       -0.4510922467       -0.4758906224
 H          2.1631539866       -0.5322553787        1.2373564858
 H          2.8936369867        0.9670712447        0.5838144780
  14
        -20.78313093
 C         -2.3044194379        0.2130517971        0.5784141566
 C         -1.2808026496        0.5744119929       -0.4976456548
 C          0.0097201479       -0.1720646676       -0.2485431590
 O          0.1378976805       -1.3664679630       -0.2926380880
 O          1.0007856378        0.6753685725        0.0557917458
 C          2.2779833712        0.1170159798        0.3350023048
 H         -3.2568561207        0.6919503165        0.3661117066
 H         -2.4497095135       -0.8640660854        0.6044716773
 H         -1.9608001596        0.5412187449        1.5567352127
 H         -1.0786702976        1.6449370234       -0.4993956059
 H         -1.6608144788        0.2738421806       -1.4755540624
 H          2.7476771434        0.7530215210        1.0825288765
 H          2.8790301669        0.1042543137       -0.5762655057
 H          2.1670324781       -0.9027353573        0.7082375198
  14
        -20.78320220
 C         -2.2552821182        0.2891412165       -0.6293352520
 C         -1.3000943935        0.5142216722        0.5437121070
 C          0.0070918848       -0.1925753230        0.2706531711
 O          0.1764594085       -1.3819688610        0.3108515870
 O          0.9704051186        0.6799064887       -0.0527367049
 C          2.2414294082        0.1267114265       -0.3654412028
 H         -2.4032004292       -0.7759604009       -0.7896740876
 H         -3.2177265309        0.7497440941       -0.4217732690
 H         -1.8503121796        0.7257154566       -1.5394177899
 H         -1.7333374218        0.0939763023        1.4522540835
 H         -1.1086815680        1.5774326664        0.6841479078
 H          2.6188539633       -0.4543963116        0.4783109313
 H          2.8971377337        0.9676300978       -0.5754817458
 H          2.1655507049       -0.5282769132       -1.2357463265
  14
        -20.78312328
 C         -2.3163453743        0.1985398663       -0.5632623820
 C         -1.2760532298        0.5855096955        0.4873980586
 C          0.0098954602       -0.1692659588        0.2398620713
 O          0.1266002052       -1.3650957930        0.2784358952
 O          1.0088254506        0.6739126379       -0.0495300928
 C          2.2885594808        0.1185431340       -0.3255808800
 H         -2.4571115537       -0.8794238859       -0.5642737094
 H         -3.2670543471        0.6782234818       -0.3452480188
 H         -1.9904388119        0.5069558701       -1.5540195114
 H         -1.6414529904        0.3096722765        1.4782689815
 H         -1.0726034782        1.6554592079        0.4612679188
 H          2.9507955617        0.3139024541        0.5191104708
 H          2.6741683392        0.6059975390       -1.2198326912
 H          2.1996969814       -0.9578984284       -0.4833600508
  14
        -20.78311779
 C         -2.2987382308        0.2238199350        0.5857554155
 C         -1.2819417133        0.5672312972       -0.5028556045
 C          0.0085445697       -0.1772777932       -0.2489842069
 O          0.1378831003       -1.3713758261       -0.2982187950
 O          0.9978632118        0.6728793717        0.0523852460
 C          2.2775940528        0.1246221766        0.3418153061
 H         -2.4466029464       -0.8523392872        0.6284639481
 H         -1.9476191896        0.5652051589        1.5568018742
 H         -3.2515120892        0.7019308965        0.3733776751
 H         -1.0790483812        1.6374487676       -0.5220896409
 H         -1.6686243761        0.2513932429       -1.4732113063
 H          2.4424162670        0.1486904010        1.4201879909
 H          3.0197481575        0.7422586517       -0.1612522874
 H          2.3292743738       -0.9060131376       -0.0140777159
  14
        -20.78311042
 C         -2.2553422017        0.2885741042       -0.6276533620
 C         -1.2959264981        0.5192952008        0.5407271995
 C          0.0061473434       -0.1988690181        0.2715336197
 O          0.1592052200       -1.3906063422        0.3099036270
 O          0.9718696863        0.6706386631       -0.0507077131
 C          2.2545601465        0.1446165060       -0.3661046703
 H         -3.2154925724        0.7542969970       -0.4209959328
 H         -1.8512704347        0.7164072927       -1.5422465811
 H         -2.4073160003       -0.7772374987       -0.7791136265
 H         -1.7292761682        0.1100822301        1.4542723794
 H         -1.0979380151        1.5825735145        0.6711222435
 H          2.9046288395        0.2280660622        0.5066135053
 H          2.6547573240        0.7381226108       -1.1860346491
 H          2.1666622974       -0.9042909818       -0.6552157899
  14
        -20.78310357
 C         -2.2572319617        0.2868014141       -0.6258939136
 C         -1.2945387040        0.5214704395        0.5389674833
 C          0.0059413897       -0.1996527807        0.2700361152
 O          0.1552370596       -1.3918659729        0.3094170499
 O          0.9732150269        0.6688737624       -0.0496536539
 C          2.2580538758        0.1478257754       -0.3656294335
 H         -2.4102222733       -0.7794619126       -0.7727848391
 H         -3.2165379760        0.7538242006       -0.4184231398
 H         -1.8555148254        0.7107529365       -1.5432642114
 H         -1.7260827079        0.1166356499        1.4553435589
 H         -1.0949368632        1.5850229052        0.6645138381
 H          2.2004518946       -0.9360408405       -0.4816178747
 H          2.9487496213        0.3972561670        0.4410087173
 H          2.5872849331        0.6143409876       -1.2931973004
  14
        -20.78310350
 C         -2.1661487204        0.4387642312       -0.6882953077
 C         -1.3275251043        0.4093834439        0.5910097434
 C         -0.0008269613       -0.2520281274        0.2995486024
 O          0.2067494978       -1.4353948323        0.3394880436
 O          0.9147788394        0.6600825229       -0.0498410617
 C          2.2110808594        0.1969263882       -0.4050234753
 H         -3.1374689772        0.8834126816       -0.4871408640
 H         -1.6667534149        1.0257988370       -1.4554396877
 H         -2.3154397961       -0.5711610749       -1.0625926529
 H         -1.8421228968       -0.1710042277        1.3569085244
 H         -1.1516760572        1.4236558072        0.9479505097
 H          2.1871287708       -0.8810050140       -0.5752607908
 H          2.9055650090        0.4256796975        0.4047892883
 H          2.5119631757        0.7213124753       -1.3108020938
  14
        -20.78310811
 C         -2.1926386527        0.3859283674        0.6766368246
 C         -1.3174052079        0.4488065731       -0.5765695086
 C          0.0015729629       -0.2324823291       -0.2956887782
 O          0.1928763606       -1.4182151792       -0.3453696335
 O          0.9318329215        0.6634429810        0.0569785656
 C          2.2227471230        0.1761177387        0.3991357996
 H         -3.1602517426        0.8401229842        0.4790429229
 H         -2.3462323771       -0.6484159560        0.9745686528
 H         -1.7191102404        0.9193624491        1.4975330014
 H         -1.1331042413        1.4852999522       -0.8569123852
 H         -1.8095439064       -0.0762547801       -1.3955334563
 H          2.8998606581        0.3278530724       -0.4431050735
 H          2.1685635797       -0.8878586594        0.6366718961
 H          2.5679744079        0.7454133424        1.2604017152
  14
        -20.78311023
 C         -2.2240957684        0.3411048677       -0.6537048844
 C         -1.3060920638        0.4816618121        0.5617720483
 C          0.0032102082       -0.2184876555        0.2813636392
 O          0.1738154988       -1.4077525195        0.3239617265
 O          0.9526475894        0.6658765137       -0.0478537420
 C          2.2403352267        0.1655037338       -0.3843148542
 H         -1.7820037565        0.8240208143       -1.5220822587
 H         -2.3826898471       -0.7100431709       -0.8819097117
 H         -3.1861407110        0.8046219948       -0.4505989021
 H         -1.7702399287        0.0082536526        1.4275616611
 H         -1.1126038175        1.5326638714        0.7734002722
 H          2.3095785999       -0.8904406701       -0.1163398453
 H          2.9771934921        0.7483720859        0.1665576620
 H          2.3981692886        0.2856968326       -1.4571204274
  14
        -20.78310997
 C         -2.1922723361        0.3928297062       -0.6746240940
 C         -1.3180334693        0.4428253845        0.5799159847
 C          0.0014666672       -0.2351839486        0.2936972685
 O          0.1936421120       -1.4211873605        0.3326707323
 O          0.9315485247        0.6641832297       -0.0509698873
 C          2.2225198123        0.1793225827       -0.3957118633
 H         -2.3479809340       -0.6385389497       -0.9816639586
 H         -3.1590688704        0.8474283212       -0.4738145098
 H         -1.7169078798        0.9323810829       -1.4904726254
 H         -1.8108110993       -0.0905721919        1.3931367912
 H         -1.1341629902        1.4764700361        0.8709407392
 H          2.5799494022        0.7758059859       -1.2332466132
 H          2.1640820910       -0.8756121653       -0.6701530314
 H          2.8925124943        0.2966278239        0.4578715807
  14
        -20.78310377
 C         -2.2411323445        0.3088565435        0.6414518869
 C         -1.2995218132        0.5062848599       -0.5475784911
 C          0.0045885016       -0.2074789999       -0.2773538330
 O          0.1631701385       -1.3980982094       -0.3273275443
 O          0.9631705205        0.6663215774        0.0538630990
 C          2.2500983476        0.1552658356        0.3778011757
 H         -3.2014572564        0.7763339798        0.4394393560
 H         -2.3980428692       -0.7520365619        0.8202787787
 H         -1.8193895496        0.7551208838        1.5391141390
 H         -1.1019219995        1.5656146717       -0.7073960242
 H         -1.7472241943        0.0741848617       -1.4433153697
 H          2.9762707692        0.6032030497       -0.3003987623
 H          2.2542230068       -0.9311138812        0.2715256159
 H          2.4827039169        0.4332053141        1.4060332026
  14
        -20.78309239
 C         -2.1289892399        0.5100462190       -0.7013936774
 C         -1.3427181990        0.3565856933        0.6020911748
 C         -0.0041663486       -0.2775794618        0.3042780862
 O          0.2288684042       -1.4561753273        0.3458409808
 O          0.8896973191        0.6544806176       -0.0487509189
 C          2.1939779981        0.2226442570       -0.4136580061
 H         -1.5954552055        1.1605500588       -1.3902076750
 H         -2.2691437037       -0.4596148231       -1.1731924882
 H         -3.1054354716        0.9429241370       -0.4991450686
 H         -1.8859790170       -0.2903944440        1.2907009561
 H         -1.1825330693        1.3333899825        1.0577566418
 H          2.9031206298        0.5783167132        0.3347196770
 H          2.4323459370        0.6554064002       -1.3848362336
 H          2.2231413100       -0.8673533138       -0.4649635437
  14
        -20.78271833
 C         -1.9304653127        1.1410316324        0.3496869398
 C         -1.4940007306       -0.1634447747       -0.3037733273
 C         -0.0241556678       -0.4770742760       -0.1368612100
 O          0.4427681550       -1.5850406173       -0.1891899266
 O          0.7154661376        0.6213842805        0.0526457521
 C          2.1134056855        0.4162660601        0.1937986055
 H         -1.3908927943        1.9819406145       -0.0762932521
 H         -2.9956914796        1.2940216874        0.1943361155
 H         -1.7371325902        1.1156479571        1.4190664468
 H         -1.6853204185       -0.1247127542       -1.3800095212
 H         -2.0550493147       -1.0105643673        0.0948202639
 H          2.5203568662       -0.0561222060       -0.7024791425
 H          2.3175397107       -0.2279444705        1.0512725866
 H          2.5519623606        1.3996900113        0.3411273692
  14
        -20.78269086
 C         -1.9067281270        1.2077809249        0.1860635588
 C         -1.5110078261       -0.2206701164       -0.1587067271
 C         -0.0269250095       -0.4981519395       -0.0731442471
 O          0.4562312470       -1.6002132240       -0.1081167555
 O          0.7017842750        0.6180382026        0.0334703490
 C          2.1090198015        0.4415154764        0.1033250466
 H         -1.6028434712        1.4551115923        1.1997833857
 H         -1.4335685639        1.9114472056       -0.4929844308
 H         -2.9855104160        1.3207267508        0.1097051251
 H         -1.8165474906       -0.4628800325       -1.1803823370
 H         -2.0105287396       -0.9346335504        0.4996880131
 H          2.3681975404       -0.2157602936        0.9356733781
 H          2.5331449152        1.4315772133        0.2494935811
 H          2.4819676094       -0.0028766376       -0.8217077118
  14
        -20.78262264
 C         -1.9162496276        1.1665984964        0.3090282484
 C         -1.4987330078       -0.1794216257       -0.2671619276
 C         -0.0254740492       -0.4895918858       -0.1225687305
 O          0.4362649066       -1.6002171414       -0.1686925886
 O          0.7115969841        0.6129214046        0.0481659300
 C          2.1160119678        0.4398449972        0.1715578596
 H         -1.3922252932        1.9765969263       -0.1902665429
 H         -2.9861889953        1.3088056352        0.1772836879
 H         -1.6888499732        1.2146673865        1.3708752499
 H         -1.7209936488       -0.2143675744       -1.3375719467
 H         -2.0494443408       -0.9964612840        0.2028102566
 H          2.3372925144       -0.5244498834        0.6332565581
 H          2.4811953465        1.2573189479        0.7896393509
 H          2.5812780472        0.4789989802       -0.8154983742
  14
        -20.78255292
 C         -1.9058854849        1.1915314864       -0.2495816043
 C         -1.5023639383       -0.1964942009        0.2278830988
 C         -0.0269751328       -0.5016773505        0.0934468411
 O          0.4307646171       -1.6149563366        0.1095617428
 O          0.7096602058        0.6076755900       -0.0218012948
 C          2.1185835193        0.4611615455       -0.1356696580
 H         -2.9785438931        1.3250463728       -0.1317028125
 H         -1.3936061982        1.9587875347        0.3237563268
 H         -1.6538419335        1.3229756181       -1.2985985898
 H         -2.0434693116       -0.9719804677       -0.3177431963
 H         -1.7498238419       -0.3166560840        1.2864389501
 H          2.4281513378        0.8312810077       -1.1136230612
 H          2.3928593731       -0.5901237243       -0.0295655480
 H          2.5853987652        1.0553438914        0.6496702279
