! pbe def2-sv(p) def2/J RI DEFGRID1 loosescf d4 GCP(DFT/SV(P)) printgap
%output
    printlevel normal
end
* xyz 0 1
C -2.5367566302 0.1021263062 0.2831886019
C -1.2636219712 0.6985959977 -0.3058220646
C 5.52871e-05 -0.002261908 0.2129380417
C 1.2636150163 0.6983452284 -0.3064005171
C 2.5367976659 0.1029476551 0.2835832632
O -3.28976e-05 -1.3603937943 -0.2208442063
H -3.4101917783 0.6161435652 -0.1091473877
H -2.6104847364 -0.9506236664 0.0222359927
H -2.5376962286 0.1963475546 1.3670796926
H -1.2836279517 0.5997560461 -1.3924049915
H -1.2012318897 1.7586380317 -0.0568947021
H 0.0002861705 0.0400080935 1.3094876893
H 1.2838149359 0.5981181909 -1.3928507454
H 1.2009030886 1.7586836199 -0.0588420213
H 2.6106896847 -0.9501945706 0.0242398435
H 3.4101898787 0.6164865846 -0.109484645
H 2.5376519909 0.1988158829 1.3673321163
H -0.0008459338 -1.9513252457 0.5390066089
*
