  16
        -21.77975945
 C          2.6838001245        0.3906309735        0.0789441787
 C          1.6309214666       -0.6819367008       -0.1898963638
 O          0.3576856174       -0.3816776413        0.3350550243
 C         -0.3285505797        0.6641613366       -0.3229820520
 C         -1.7662254835        0.6534554452        0.1976611578
 O         -2.4147026725       -0.5528461484       -0.1035981260
 H          2.4706521073        1.2985738885       -0.4800403765
 H          2.7074208404        0.6284475786        1.1395747353
 H          3.6602052926        0.0213529842       -0.2219248691
 H          1.9181251007       -1.6139115914        0.3043526762
 H          1.5543310164       -0.8657025476       -1.2729111198
 H          0.1323256593        1.6388665710       -0.1151214377
 H         -0.3222268756        0.4909587782       -1.4094807741
 H         -2.3430913954        1.4490683437       -0.2779375505
 H         -1.7479946228        0.8204820197        1.2838687461
 H         -1.8314408083       -1.2639115536        0.1911066810
