! pbe def2-sv(p) def2/J RI DEFGRID1 loosescf d4 GCP(DFT/SV(P)) printgap
%output
    printlevel normal
end
* xyz 0 1
C -0.1524879115 2.0833584308 -1.8935943505
N -0.3199993854 1.1942897771 -0.7549838222
C -1.440621065 0.2975733723 -0.946680344
C -1.8050712464 -0.4359530495 0.3306756244
F -0.9532994972 -1.4256543365 0.6537116664
F -1.8898075307 0.3570384121 1.4061174043
F -3.0130526535 -1.031506162 0.2140371124
C 0.8890758781 0.531846979 -0.3564246615
C 1.699692375 -0.1496073159 -1.2562546872
C 2.8604048086 -0.761228073 -0.8173637329
C 3.2166690317 -0.7013872024 0.5189716542
C 2.4104221883 -0.0232574068 1.4177090499
C 1.2518796129 0.5950946032 0.9825180115
H -1.0169103759 2.7434839526 -1.9434922266
H -0.05696033 1.5544712918 -2.8495699297
H 0.7387736165 2.6823725335 -1.7278387612
H -2.3155548647 0.8901326636 -1.2287410469
H -1.2699516117 -0.4793357523 -1.713676326
H 1.4271377224 -0.2044277803 -2.2997439362
H 3.4859897608 -1.2890749811 -1.5213284567
H 4.1210702097 -1.1819733479 0.8591033205
H 2.6846791496 0.0272287145 2.4603224384
H 0.6172499129 1.128554327 1.6730299324
*
