! r2scan-3c def2/J RI DEFGRID2 scfconv6 printgap
%output
    printlevel normal
end
* xyz 0 1
C -2.2233236004 0.8982264634 0.1912622069
C -0.8491873513 0.6826318193 -0.4309349336
C -0.0240058745 -0.4005026974 0.2726908009
H -0.0046672683 -0.1777945435 1.3448851326
C -0.5976582294 -1.7973473785 0.0542773557
C 1.4243391481 -0.3513042004 -0.2254194998
O 2.0082225459 0.8805254966 0.1515878255
H -2.7269893783 1.7291632566 -0.2966299579
H -2.8463821253 0.0144304306 0.0837143956
H -2.1287075618 1.1287503069 1.249985419
H -0.2849411944 1.6161416348 -0.3787602332
H -0.9621385801 0.416485352 -1.4846396788
H -1.6020557088 -1.8644643807 0.4603979578
H 0.0195397657 -2.5443755198 0.5477616975
H -0.6353552386 -2.0276842405 -1.008203979
H 1.437095879 -0.460732882 -1.3186965181
H 1.988864792 -1.1846734344 0.2150827787
H 2.9165306307 0.9163410315 -0.1751966973
*
