  26
        -33.44498774
 C          3.9296315746        1.2230311522       -0.0967195498
 C          3.0304817555        0.1888250345        0.5694435535
 C          1.8902116054       -0.2447293354       -0.3479821024
 C          0.9850968609       -1.2799097773        0.3154295630
 C         -0.1928003792       -1.6661886143       -0.5758373416
 O         -1.0352917640       -0.5470711818       -0.8491440252
 C         -1.9373159605       -0.2205129119        0.0812898376
 O         -2.1107650615       -0.8358425287        1.1000822521
 C         -2.6841717403        1.0335175839       -0.3137013086
 C         -1.8654403236        2.2575973552        0.1002937739
 H          4.7349403846        1.5178583979        0.5718411797
 H          4.3691621976        0.8179306464       -1.0056637772
 H          3.3596522637        2.1115818938       -0.3597538431
 H          2.6146602453        0.6075003610        1.4886502702
 H          3.6240838266       -0.6861174250        0.8440804225
 H          1.2945762308        0.6284079662       -0.6227460648
 H          2.3044173191       -0.6645853021       -1.2679258005
 H          0.5943235598       -0.8836784839        1.2548246198
 H          1.5536807517       -2.1836260239        0.5417007801
 H         -0.7889478231       -2.4469462276       -0.0918620640
 H          0.1513127110       -2.0097769279       -1.5536294395
 H         -2.8348176086        1.0345430776       -1.3930602593
 H         -3.6475041294        1.0383764728        0.1959825851
 H         -2.4008334541        3.1689505792       -0.1539910358
 H         -1.6869593608        2.2470313272        1.1730844746
 H         -0.9072017896        2.2627400046       -0.4137857985
