! pbe def2-sv(p) def2/J RI DEFGRID1 loosescf d4 GCP(DFT/SV(P)) printgap
%output
    printlevel normal
end
* xyz 0 1
C -1.8679215572 0.8132453166 0.1473331757
C -1.1674051064 -0.4053893525 -0.4467730982
C 0.0343492206 -0.8919495027 0.3806304665
O 1.2978100336 -0.4932389145 -0.1228638673
C 1.5894783424 0.8817127342 0.0128669124
H -1.1967955427 1.6647201922 0.2198368469
H -2.7128579799 1.0961159425 -0.4757503691
H -2.2392424002 0.5835393925 1.1435657167
H -0.8170013496 -0.1852290189 -1.4571016009
H -1.8885429938 -1.2202288717 -0.5202240975
H -0.0662961043 -0.5614874171 1.4244423797
H 0.0868243831 -1.982676838 0.3630488914
H 0.9765546545 1.4916771669 -0.6569587701
H 2.637237438 0.9932551985 -0.257899362
H 1.4390987228 1.2115971171 1.0465033025
*
