  6
         -7.41182254
 C          1.2336809618       -0.0093952999       -0.0000010749
 S         -0.5870122490        0.0437844253       -0.0000002817
 H          1.5694285025        1.0224905942        0.0000189773
 H          1.5851861449       -0.5140854575       -0.8945586567
 H          1.5851192209       -0.5141183199        0.8945768252
 H         -0.7692301780       -1.2750505128       -0.0000153771
