  17
  -22.4813181400000       0.152507800618459      !mtd11
 C         -2.8612996143       -0.3959404333        0.1151608411
 N         -1.8191240136        0.5679034119       -0.1348810127
 C         -0.4815534324        0.2489993588       -0.0390265960
 C         -0.0208551722       -1.0688440613       -0.0467278173
 C          1.3351468931       -1.3350984729       -0.0135469150
 C          2.2599067205       -0.3068299673        0.0306607909
 C          1.8117338215        1.0046287640        0.0417389302
 C          0.4613066067        1.2811112936        0.0098051189
 H         -3.8260380788        0.0977062972        0.0164888194
 H         -2.7959267904       -0.8436115421        1.1155391045
 H         -2.8108089196       -1.1947504180       -0.6262785057
 H         -2.0382393892        1.5137068507        0.1391593649
 H         -0.7203590395       -1.8891940291       -0.0784772717
 H          1.6713570321       -2.3622496267       -0.0194732392
 H          3.3171610691       -0.5227075256        0.0585034436
 H          2.5215939509        1.8185243905        0.0796984198
 H          0.1170635218        2.3065970463        0.0206508974
  17
  -22.4813181300000       0.152506186797186      !mtd5
 C         -2.8612238698       -0.3959996137        0.1153650692
 N         -1.8191376356        0.5679429453       -0.1346338224
 C         -0.4815776737        0.2490395136       -0.0393113034
 C         -0.0208749484       -1.0688385368       -0.0471390348
 C          1.3351136876       -1.3350940859       -0.0135969576
 C          2.2598409486       -0.3068199841        0.0310938175
 C          1.8117736261        1.0046491364        0.0418166406
 C          0.4613441166        1.2810895801        0.0094515127
 H         -2.8109623176       -1.1944614105       -0.6264653291
 H         -3.8260249623        0.0976271206        0.0173301210
 H         -2.7953457679       -0.8442518592        1.1154662174
 H         -2.0382227172        1.5137327726        0.1393577206
 H         -0.7204029189       -1.8891550447       -0.0790398930
 H          1.6712008156       -2.3622790595       -0.0192010758
 H          3.3170465480       -0.5228407309        0.0596092887
 H          2.5215948220        1.8185556411        0.0798316473
 H          0.1169892250        2.3065502445        0.0200704775
  17
  -22.4813181200000       0.152504572993562      !mtd10
 C         -2.7497232465        0.8840656188       -0.1237509495
 N         -1.8903295094       -0.2457374534        0.1263177873
 C         -0.5174392343       -0.1622281673        0.0364007263
 C          0.2334209674       -1.3415300909       -0.0094016913
 C          1.6114176938       -1.3022064773       -0.0355338244
 C          2.2790991835       -0.0877413339       -0.0215747095
 C          1.5454370235        1.0846429064        0.0197343540
 C          0.1636957940        1.0563764912        0.0470478697
 H         -3.7853963392        0.5645564468       -0.0271702842
 H         -2.6063516591        1.3152022736       -1.1232477211
 H         -2.5631492136        1.6611548019        0.6190481271
 H         -2.2684372443       -1.1390107246       -0.1506594609
 H         -0.2825799672       -2.2922239442       -0.0225333279
 H          2.1703060623       -2.2263966115       -0.0713041383
 H          3.3578405408       -0.0574831365       -0.0451824185
 H          2.0537931947        2.0383958246        0.0272567718
 H         -0.3838384774        1.9851733170        0.0760637139
  17
  -22.4813181100000       0.152502959206443      !mtd3
 C         -2.7496973180        0.8838951593       -0.1247268841
 N         -1.8902938027       -0.2455644093        0.1270809441
 C         -0.5174317558       -0.1621767080        0.0368001572
 C          0.2333786205       -1.3414978773       -0.0090064917
 C          1.6113726219       -1.3022059394       -0.0354484636
 C          2.2790726244       -0.0877412224       -0.0218058869
 C          1.5454393280        1.0846479364        0.0193072182
 C          0.1637175561        1.0563923106        0.0469929796
 H         -2.5643118330        1.6613899476        0.6179588628
 H         -3.7854562964        0.5640935141       -0.0293873945
 H         -2.6051071841        1.3141932447       -1.1243173938
 H         -2.2683900751       -1.1390904725       -0.1491063508
 H         -0.2826507355       -2.2922096380       -0.0216060828
 H          2.1703624673       -2.2265193374       -0.0704558408
 H          3.3578846724       -0.0575688083       -0.0451188003
 H          2.0538273987        2.0383414527        0.0269715549
 H         -0.3837943763        1.9851115913        0.0763696653
  17
  -22.4813181000000       0.152501345436400      !mtd5
 C         -2.8613411759       -0.3961424059        0.1139774704
 N         -1.8191199053        0.5681063120       -0.1341528954
 C         -0.4815424366        0.2490592866       -0.0385273282
 C         -0.0208885741       -1.0688400844       -0.0458624635
 C          1.3351088642       -1.3351022673       -0.0134957816
 C          2.2599261049       -0.3068141641        0.0301104372
 C          1.8117891824        1.0046181998        0.0413728266
 C          0.4613336766        1.2811290189        0.0099090883
 H         -2.7965216012       -0.8452814243        1.1137208297
 H         -2.8101195325       -1.1939665946       -0.6284843616
 H         -3.8260425928        0.0974311722        0.0152304927
 H         -2.0383904808        1.5133761727        0.1415246613
 H         -0.7204684964       -1.8891477647       -0.0766232315
 H          1.6713381229       -2.3622492214       -0.0189559564
 H          3.3171732772       -0.5227597838        0.0571604871
 H          2.5216105437        1.8185743062        0.0784800257
 H          0.1171691853        2.3066417828        0.0205525116
  17
  -22.4813180800000       0.152498117948119      !mtd4
 C         -2.7498474017        0.8841716056       -0.1226236710
 N         -1.8902217228       -0.2457310314        0.1257942675
 C         -0.5174452645       -0.1623360514        0.0357159323
 C          0.2334634104       -1.3415853588       -0.0103577764
 C          1.6114840803       -1.3021626522       -0.0356712756
 C          2.2791298447       -0.0877054254       -0.0208589394
 C          1.5453941160        1.0846630336        0.0200369085
 C          0.1636659402        1.0563074149        0.0467694682
 H         -2.6059284114        1.3172250193       -1.1212214521
 H         -2.5639064440        1.6599205844        0.6217929843
 H         -3.7855198953        0.5642160768       -0.0272477855
 H         -2.2687632855       -1.1391212713       -0.1499940793
 H         -0.2824121591       -2.2923351277       -0.0238800991
 H          2.1704237048       -2.2263262274       -0.0714265577
 H          3.3578938589       -0.0574294630       -0.0435668114
 H          2.0536891223        2.0384409687        0.0281485043
 H         -0.3840313001        1.9850028164        0.0758828030
  17
  -22.4807654900000       8.497901699983092E-002 !input
 C         -2.8744521665       -0.4025818568       -0.0082827784
 N         -1.8117123687        0.5642538603       -0.0065761273
 C         -0.4796141683        0.2537247104       -0.0020466059
 C         -0.0219454990       -1.0665521847        0.0035261181
 C          1.3335238219       -1.3347436026        0.0083519104
 C          2.2614003407       -0.3078714838        0.0077578134
 C          1.8160370031        1.0047397930        0.0022366962
 C          0.4663051852        1.2851920637       -0.0026182106
 H         -3.8293730772        0.1176988804       -0.0130746539
 H         -2.8327277365       -1.0400355098        0.8815136900
 H         -2.8261978408       -1.0445048453       -0.8945621838
 H         -2.0550979978        1.5386647640       -0.0118290987
 H         -0.7258158295       -1.8838564685        0.0040990734
 H          1.6678510037       -2.3626024975        0.0125665063
 H          3.3185567374       -0.5257185859        0.0115188165
 H          2.5285476016        1.8173110771        0.0017119036
 H          0.1243768215        2.3115333154       -0.0069134470
