! pbe def2-sv(p) def2/J RI DEFGRID1 loosescf d4 GCP(DFT/SV(P)) printgap
%output
    printlevel normal
end
* xyz 0 1
C -2.7010956829 -1.1120487735 -0.0037647435
C -2.3770571705 0.3706589873 -0.1430499151
C -0.9117959611 0.6543546536 -0.4806751342
C 0.0697846312 0.2467653692 0.6286107066
C 0.7288059125 -1.1137898101 0.367400634
C 1.9352050395 -0.8214177069 -0.542283754
C 2.1671402167 0.6973802994 -0.4677702968
C 1.287811737 1.1734384197 0.687842612
H -3.7656271197 -1.2483662538 0.1737360742
H -2.435796661 -1.6471073706 -0.913113457
H -2.1587897409 -1.5510470228 0.8294103661
H -3.000703107 0.7941594035 -0.9343398191
H -2.6345580055 0.8837600449 0.7868604421
H -0.6522141641 0.1426300052 -1.4085631982
H -0.8171393585 1.7276610472 -0.6621152757
H -0.4608860911 0.2511831747 1.5846387547
H 1.070481502 -1.5357606744 1.3139115466
H 0.0441600916 -1.8251881612 -0.0883364714
H 2.8127147409 -1.3706046171 -0.2025274468
H 1.7350034492 -1.1295370127 -1.5681484735
H 3.2159722241 0.9446723353 -0.3097760125
H 1.8468267902 1.1749107214 -1.394014023
H 1.8084308928 1.025732194 1.6358085724
H 1.0230686444 2.2267319095 0.6046974812
*
