! r2scan-3c def2/J RI DEFGRID2 scfconv6 printgap
%output
    printlevel normal
end
%cpcm
    smd true
    smdsolvent "water"
end
* xyz 0 1
C 2.3469037378 0.3082398245 0.1214309082
C 0.882812626 0.7275532334 0.0840397993
C -0.0495211641 -0.4379097842 -0.1202373137
O 0.3337583424 -1.5924489593 -0.0945691955
C -1.4975327464 -0.1063211657 -0.3949344768
C -2.0574192555 1.0864061892 0.3737978912
H 2.9837174429 1.1682456937 0.307051909
H 2.5066903078 -0.4271997177 0.9063202914
H 2.6343112593 -0.1468020768 -0.823522144
H 0.6079229096 1.2019085649 1.028651526
H 0.7095784667 1.4541892795 -0.7110130003
H -2.0873197479 -1.002930327 -0.1930389064
H -1.5646347889 0.0894863384 -1.4691606021
H -1.5603937167 2.0096041142 0.0926009886
H -1.9453775605 0.9375087205 1.4448419958
H -3.1167159977 1.1902541315 0.1546138789
*
