  8
        -23.49290777
 C          0.7011544571       -0.0001607713       -1.1674654565
 C         -0.3713552076       -0.0001646210       -0.0957466897
 Cl        -1.9632038686       -0.0002270405       -0.8979846029
 Cl        -0.2480806132       -1.4450630568        0.9248793116
 Cl        -0.2484589728        1.4453288531        0.9245339657
 Cl         2.3131228101        0.0000828524       -0.4220569470
 H          0.6136114397        0.8957247242       -1.7836913688
 H          0.6136163844       -0.8961246538       -1.7835025625
