  8
  -23.4929077700000       0.333342739563141      !md2
 C          0.7011544571       -0.0001607713       -1.1674654565
 C         -0.3713552076       -0.0001646210       -0.0957466897
 Cl        -1.9632038686       -0.0002270405       -0.8979846029
 Cl        -0.2480806132       -1.4450630568        0.9248793116
 Cl        -0.2484589728        1.4453288531        0.9245339657
 Cl         2.3131228101        0.0000828524       -0.4220569470
 H          0.6136114397        0.8957247242       -1.7836913688
 H          0.6136163844       -0.8961246538       -1.7835025625
  8
  -23.4929077400000       0.333332157484465      !mtd7
 C          1.1600322967        0.6464914999       -0.3012990879
 C         -0.2026105913        0.2373378133        0.2226622648
 Cl        -1.3275475270       -0.0759228573       -1.1121033222
 Cl        -0.0835437726       -1.2133079026        1.2359937596
 Cl        -0.8458132433        1.5750244731        1.2103109782
 Cl         1.8498526709       -0.6525905918       -1.2963905549
 H          1.8400055511        0.8322200735        0.5312388190
 H          1.0686341105        1.5374355037       -0.9241364894
  8
  -23.4929077200000       0.333325102952394      !mtd2
 C          1.1600697768       -0.6461305933       -0.3011671044
 C         -0.2028039025       -0.2374126352        0.2224186834
 Cl        -1.3277299831        0.0754849854       -1.1124636337
 Cl        -0.8453290717       -1.5745802242        1.2110724692
 Cl        -0.0836148117        1.2133452368        1.2357784816
 Cl         1.8496675742        0.6524307781       -1.2965749261
 H          1.0690392687       -1.5375687202       -0.9233314013
 H          1.8398541411       -0.8314121686        0.5317098000
