  24
  -31.8131642100000       0.107272797030115      !mtd14
 C         -1.0439846350       -2.9150192437       -0.0001634103
 C         -1.0108260913       -1.4156757956        0.0000332958
 C         -2.1783137667       -0.7001147373       -0.0000448918
 C         -2.1782868303        0.7002049820        0.0000290689
 C         -1.0107714403        1.4157151180        0.0000022751
 C          0.2239571737        0.7115433666       -0.0000356746
 C          0.2239295454       -0.7115546669        0.0000951433
 C          1.4645948712       -1.3852586466        0.0002297379
 C          2.6470602034       -0.7002089487        0.0001583440
 C          2.6470879808        0.7001013335       -0.0001768718
 C          1.4646528528        1.3852001142       -0.0002468864
 C         -1.0438595181        2.9150620147        0.0001351220
 H         -2.0723025917       -3.2686246590        0.0011090771
 H         -0.5456754294       -3.3131503185       -0.8835729705
 H         -0.5433160468       -3.3135996724        0.8816809633
 H         -3.1265754215       -1.2194119306       -0.0000743412
 H         -3.1265312615        1.2195454223        0.0001073135
 H          1.4782154700       -2.4640478038        0.0003817746
 H          3.5863761365       -1.2342839128        0.0003622536
 H          3.5864234428        1.2341315541       -0.0003004676
 H          1.4783139873        2.4639850937       -0.0004274732
 H         -0.5439007585        3.3135078924       -0.8821715889
 H         -2.0721430570        3.2687187652       -0.0003504485
 H         -0.5447042852        3.3132904638        0.8830741509
  24
  -31.8131642100000       0.107272797030115      !gc
 C         -1.0439369860       -2.9150026375       -0.0000487610
 C         -1.0108412179       -1.4156688531       -0.0000064805
 C         -2.1783465987       -0.7001267831       -0.0000988298
 C         -2.1783068457        0.7001662341       -0.0000195352
 C         -1.0107418352        1.4157045277        0.0000619642
 C          0.2239427355        0.7115755083       -0.0000174113
 C          0.2238855193       -0.7115331275        0.0000686694
 C          1.4645896233       -1.3852309884        0.0001932987
 C          2.6470495149       -0.7002206196        0.0001165843
 C          2.6470735510        0.7000890666       -0.0001547122
 C          1.4646580803        1.3852099968       -0.0002234383
 C         -1.0438065603        2.9150426051        0.0001454532
 H         -0.5442778369       -3.3132476482       -0.8826155513
 H         -0.5445019346       -3.3132973437        0.8826218444
 H         -2.0722066720       -3.2687876391       -0.0001892956
 H         -3.1265773028       -1.2195041143       -0.0002251098
 H         -3.1265434850        1.2194896996       -0.0000001140
 H          1.4780824518       -2.4640065828        0.0003970583
 H          3.5863849288       -1.2342595250        0.0002690727
 H          3.5864098604        1.2341213524       -0.0003357216
 H          1.4783566456        2.4640005275       -0.0005218750
 H         -0.5428729827        3.3134175825        0.8819329843
 H         -0.5457324563        3.3133459879       -0.8833197713
 H         -2.0720864241        3.2686689605        0.0017862585
  24
  -31.8131642100000       0.107272797030115      !gc
 C         -1.0440375951       -2.9150075021        0.0000631188
 C         -1.0107964928       -1.4156715430       -0.0000549474
 C         -2.1783023299       -0.7001043024       -0.0001904543
 C         -2.1782857193        0.7001921819       -0.0001014630
 C         -1.0107487047        1.4157070491        0.0000402073
 C          0.2239527422        0.7115463835       -0.0000399836
 C          0.2239330740       -0.7115565668        0.0000554841
 C          1.4646232090       -1.3852550252        0.0002259640
 C          2.6470687602       -0.7002106094        0.0001036480
 C          2.6470857397        0.7001067939       -0.0002107746
 C          1.4646637694        1.3851996520       -0.0002544552
 C         -1.0438848934        2.9150482024        0.0002849421
 H         -2.0723770254       -3.2685614655       -0.0013356238
 H         -0.5432768647       -3.3135531605       -0.8817396763
 H         -0.5458136821       -3.3132145097        0.8834775468
 H         -3.1265473110       -1.2194406650       -0.0003236404
 H         -3.1265156347        1.2195492274       -0.0000552971
 H          1.4781823997       -2.4640396118        0.0005092234
 H          3.5864059769       -1.2342449654        0.0002961913
 H          3.5864285061        1.2341300154       -0.0003665530
 H          1.4783014948        2.4639845376       -0.0005137777
 H         -2.0721869575        3.2686681535        0.0015911854
 H         -0.5433021476        3.3132988745        0.8823224753
 H         -0.5454905366        3.3134865627       -0.8829240328
  24
  -31.8131642000000       0.107271661880823      !mtd9
 C         -1.0439977100       -2.9150084548        0.0001378857
 C         -1.0108168488       -1.4156441982       -0.0000633252
 C         -2.1783182938       -0.7001225545       -0.0003994308
 C         -2.1783126927        0.7002055123       -0.0002653942
 C         -1.0107504865        1.4156820818        0.0000259170
 C          0.2239646720        0.7115507519        0.0000210442
 C          0.2239295692       -0.7115726893        0.0001814985
 C          1.4646123548       -1.3852639695        0.0003921817
 C          2.6470456159       -0.7002002283        0.0000393583
 C          2.6470816430        0.7001137433       -0.0004343012
 C          1.4646521536        1.3852079699       -0.0002918004
 C         -1.0438411830        2.9150468917        0.0005026030
 H         -0.5454226614       -3.3132301722        0.8833103979
 H         -2.0723194720       -3.2686389394       -0.0008875511
 H         -0.5436235408       -3.3135543255       -0.8818842598
 H         -3.1265792096       -1.2194190488       -0.0003843058
 H         -3.1264939192        1.2196083980       -0.0001195514
 H          1.4781932125       -2.4640511413        0.0006179392
 H          3.5863888171       -1.2342359793        0.0001344854
 H          3.5864377197        1.2341072921       -0.0005797363
 H          1.4783266555        2.4639919249       -0.0003111875
 H         -0.5448302314        3.3130465538        0.8835455084
 H         -0.5438629615        3.3137455543       -0.8816718762
 H         -2.0721348977        3.2686911804        0.0000625124
  24
  -31.8131642000000       0.107271661880823      !gc
 C         -1.0440451547       -2.9150135166       -0.0001159899
 C         -1.0108074023       -1.4156769529        0.0000003563
 C         -2.1782943885       -0.7001206215       -0.0001256876
 C         -2.1782773160        0.7001956462       -0.0000637560
 C         -1.0107635623        1.4157126052       -0.0000106359
 C          0.2239661445        0.7115481587       -0.0000408434
 C          0.2239471446       -0.7115518606        0.0001420719
 C          1.4646120180       -1.3852560908        0.0003433245
 C          2.6470752603       -0.7002028156        0.0001120256
 C          2.6470941098        0.7001038810       -0.0002719451
 C          1.4646612284        1.3852032458       -0.0002740037
 C         -1.0438786357        2.9150524084        0.0002669938
 H         -0.5463327715       -3.3133239892        0.8835331169
 H         -2.0723820979       -3.2685234047       -0.0020890347
 H         -0.5430342183       -3.3135056307       -0.8817992404
 H         -3.1265539538       -1.2194255113       -0.0002987502
 H         -3.1265210429        1.2195266250        0.0000000612
 H          1.4781807519       -2.4640432701        0.0007826232
 H          3.5864059758       -1.2342480549        0.0003335748
 H          3.5864316856        1.2341377395       -0.0005386688
 H          1.4783347664        2.4639895067       -0.0005608901
 H         -2.0721762654        3.2686879583       -0.0001069395
 H         -0.5447857248        3.3131910042        0.8832135686
 H         -0.5439720440        3.3136074884       -0.8820155144
  24
  -31.8131642000000       0.107271661880823      !gc
 C         -1.0439346034       -2.9150024567        0.0000165394
 C         -1.0108414545       -1.4156676914       -0.0000716096
 C         -2.1783484717       -0.7001267343       -0.0002038391
 C         -2.1783083027        0.7001647994       -0.0000809276
 C         -1.0107411585        1.4157032459        0.0000092167
 C          0.2239419428        0.7115771676       -0.0000866194
 C          0.2238843313       -0.7115322279        0.0000602494
 C          1.4645898178       -1.3852308787        0.0003394033
 C          2.6470487499       -0.7002220880        0.0001581096
 C          2.6470723844        0.7000887063       -0.0002856121
 C          1.4646585184        1.3852111228       -0.0003220379
 C         -1.0438044295        2.9150419408        0.0003668000
 H         -0.5429752580       -3.3134165650       -0.8817232586
 H         -0.5457973497       -3.3131202397        0.8835123707
 H         -2.0722018018       -3.2687941554       -0.0015557479
 H         -3.1265780372       -1.2195067098       -0.0003634749
 H         -3.1265428770        1.2194911501       -0.0000408616
 H          1.4780760121       -2.4640061207        0.0007268758
 H          3.5863870814       -1.2342559447        0.0003503492
 H          3.5864097358        1.2341190786       -0.0005620058
 H          1.4783601534        2.4640018013       -0.0005947634
 H         -2.0720844043        3.2686691844        0.0003834052
 H         -0.5443757130        3.3131202579        0.8831592917
 H         -0.5442230135        3.3136398011       -0.8820965943
  24
  -31.8131641900000       0.107270526743542      !mtd12
 C         -1.0439912913       -2.9150103840       -0.0003085050
 C         -1.0108191064       -1.4156732196       -0.0001433250
 C         -2.1783158627       -0.7001127976       -0.0000762302
 C         -2.1782754521        0.7001993264        0.0002037285
 C         -1.0107473318        1.4157085760        0.0000744762
 C          0.2239644444        0.7115405632       -0.0001962046
 C          0.2239234864       -0.7115474551        0.0000537356
 C          1.4646014819       -1.3852623765        0.0005630441
 C          2.6470491007       -0.7002185203        0.0004642244
 C          2.6470849626        0.7001071997       -0.0003593563
 C          1.4646752042        1.3852073155       -0.0006174171
 C         -1.0438884003        2.9150555952        0.0003005456
 H         -0.5425470125       -3.3133879954       -0.8817958333
 H         -0.5464782615       -3.3133701490        0.8834461026
 H         -2.0723134561       -3.2685813294       -0.0025823723
 H         -3.1265784588       -1.2194149043       -0.0001860643
 H         -3.1265065520        1.2195570092        0.0004087361
 H          1.4781911222       -2.4640455125        0.0011123303
 H          3.5863975537       -1.2342460978        0.0008575798
 H          3.5864735243        1.2340574752       -0.0006821356
 H          1.4782670880        2.4640125412       -0.0010663798
 H         -0.5448343474        3.3135311964       -0.8825425377
 H         -2.0722048204        3.2686397228        0.0008032971
 H         -0.5439351401        3.3133216558        0.8827192504
  24
  -31.8131641800000       0.107269391618677      !mtd3
 C         -1.0439851956       -2.9150089766       -0.0004330893
 C         -1.0108308017       -1.4156816816       -0.0000006327
 C         -2.1783111781       -0.7001186416       -0.0001266560
 C         -2.1782820528        0.7002142117        0.0000744168
 C         -1.0107709296        1.4157164153        0.0000076248
 C          0.2239580118        0.7115372429       -0.0001591596
 C          0.2239318357       -0.7115523573        0.0001912959
 C          1.4646017459       -1.3852537947        0.0007315658
 C          2.6470606568       -0.7002040286        0.0004619869
 C          2.6470838408        0.7000968107       -0.0005213409
 C          1.4646478784        1.3851948514       -0.0006939460
 C         -1.0438615265        2.9150598956        0.0004760302
 H         -2.0722888910       -3.2686322885       -0.0002752846
 H         -0.5447233808       -3.3129955076       -0.8833721771
 H         -0.5441683485       -3.3137444614        0.8818717774
 H         -3.1265716998       -1.2194166423       -0.0004230589
 H         -3.1265614999        1.2194816848        0.0001676461
 H          1.4782263906       -2.4640342662        0.0014268471
 H          3.5863880143       -1.2342579096        0.0009418057
 H          3.5864188680        1.2341279592       -0.0010899888
 H          1.4783116448        2.4639791748       -0.0013115037
 H         -0.5452533910        3.3129743644        0.8837948446
 H         -0.5434648583        3.3138046949       -0.8814267079
 H         -2.0721557761        3.2687138249       -0.0004006777
  24
  -31.8131641000000       0.107260311049750      !mtd7
 C         -1.0439735525       -2.9150031897       -0.0013074566
 C         -1.0108156348       -1.4156707280       -0.0001637794
 C         -2.1783150773       -0.7001012898        0.0009860639
 C         -2.1782917663        0.7002089265        0.0012900500
 C         -1.0107650266        1.4157179940        0.0000006062
 C          0.2239523547        0.7115326497       -0.0003289989
 C          0.2239287172       -0.7115621364       -0.0001678089
 C          1.4646045042       -1.3852608920        0.0002637683
 C          2.6470580822       -0.7002083215        0.0008380740
 C          2.6470890571        0.7000977359        0.0002763952
 C          1.4646553555        1.3851869922       -0.0005496009
 C         -1.0438724470        2.9150540340       -0.0009372457
 H         -0.5446425781       -3.3141849150        0.8810006373
 H         -2.0722743251       -3.2685486714       -0.0017483031
 H         -0.5443723896       -3.3126163965       -0.8842282580
 H         -3.1265687039       -1.2194179124        0.0016306562
 H         -3.1265191221        1.2195759231        0.0019039711
 H          1.4782153518       -2.4640479094        0.0005549157
 H          3.5863831214       -1.2342679524        0.0020065177
 H          3.5864331883        1.2341179623        0.0008745051
 H          1.4782843179        2.4639657053       -0.0009647221
 H         -0.5431759251        3.3129783357       -0.8830679402
 H         -2.0721758521        3.2686857334       -0.0025169439
 H         -0.5455763662        3.3138581158        0.8821707915
  24
  -31.8104011400000       5.763291049383176E-003 !gc
 C         -1.1119858502       -2.9224173417        0.0016095202
 C         -1.0016646922       -1.4234755275        0.0003620942
 C         -2.1690858089       -0.7016070397       -0.0012544055
 C         -2.1739141176        0.6954223180       -0.0015641230
 C         -1.0048914276        1.4099235483        0.0000231310
 C          0.2273900931        0.7043412962        0.0002168928
 C          0.2345255653       -0.7224066027        0.0001523313
 C          1.4871793170       -1.3765273963       -0.0004923362
 C          2.6629140820       -0.6813268455       -0.0005923358
 C          2.6523566961        0.7186601962       -0.0002098812
 C          1.4627742267        1.3892443841        0.0001063764
 C         -1.0400737513        2.9094106066        0.0014187083
 H         -1.6774782567       -3.2486031681        0.8741558305
 H         -1.6526345254       -3.2521635837       -0.8853914496
 H         -0.1511411950       -3.4231276728        0.0162754571
 H         -3.1145389643       -1.2263661189       -0.0021510362
 H         -3.1224080423        1.2141918004       -0.0024932035
 H          1.5271479723       -2.4545145833       -0.0011563301
 H          3.6058965732       -1.2088599947       -0.0010267407
 H          3.5864640094        1.2615345791       -0.0004802074
 H          1.4646887725        2.4679425043       -0.0002159919
 H         -2.0693231908        3.2604156553        0.0052468151
 H         -0.5390374249        3.3086320767        0.8827211629
 H         -0.5451769078        3.3099562998       -0.8828146026
  24
  -31.8104008900000       5.761766579829537E-003 !gc
 C         -1.1118171676       -2.9224008128        0.0001887060
 C         -1.0016525522       -1.4234644856        0.0002958791
 C         -2.1690810006       -0.7016153706       -0.0004917083
 C         -2.1739294413        0.6954334769       -0.0005000468
 C         -1.0049231311        1.4099495585        0.0001315451
 C          0.2273809868        0.7043642783        0.0001303962
 C          0.2345158207       -0.7223601100        0.0002950841
 C          1.4871045917       -1.3765675993        0.0001307646
 C          2.6628482037       -0.6813850988        0.0000175500
 C          2.6523364392        0.7186040208       -0.0003027684
 C          1.4627714739        1.3892372926       -0.0003284409
 C         -1.0400755233        2.9094333000        0.0005681755
 H         -1.6540471799       -3.2510864137       -0.8861386724
 H         -0.1508354663       -3.4229370394        0.0123793820
 H         -1.6754777397       -3.2495958312        0.8734741595
 H         -3.1145533885       -1.2263359759       -0.0008368043
 H         -3.1224263084        1.2142123848       -0.0007482277
 H          1.5269492812       -2.4545652872       -0.0000921298
 H          3.6058307677       -1.2089204085        0.0000755340
 H          3.5864610142        1.2614379599       -0.0006315498
 H          1.4646880267        2.4679344327       -0.0009031701
 H         -2.0693302523        3.2604477826        0.0042958773
 H         -0.5389281565        3.3092422331        0.8815334913
 H         -0.5453279834        3.3093606157       -0.8840182914
  24
  -31.8104008900000       5.761766579829537E-003 !gc
 C         -1.1119307955       -2.9224075372        0.0005324359
 C         -1.0016660281       -1.4234692657        0.0003300305
 C         -2.1690799317       -0.7016074678       -0.0003949068
 C         -2.1739134974        0.6954327989       -0.0006450969
 C         -1.0048974983        1.4099350695        0.0000735439
 C          0.2273900365        0.7043330078        0.0001932548
 C          0.2345209672       -0.7224052639        0.0001383098
 C          1.4871505191       -1.3765365467       -0.0003511708
 C          2.6629000080       -0.6813410743       -0.0002704579
 C          2.6523545913        0.7186507628        0.0000237090
 C          1.4627666697        1.3892323460        0.0001160483
 C         -1.0400818476        2.9094184688        0.0003733097
 H         -1.6753277251       -3.2494354619        0.8741152493
 H         -1.6546822189       -3.2513150999       -0.8854839927
 H         -0.1510072864       -3.4230542287        0.0123738107
 H         -3.1145462499       -1.2263442600       -0.0008783457
 H         -3.1224149426        1.2141930641       -0.0010893748
 H          1.5271243616       -2.4545310672       -0.0008561655
 H          3.6058713392       -1.2088918151       -0.0004453746
 H          3.5864617101        1.2615260645       -0.0000830665
 H          1.4646897743        2.4679323107       -0.0001828772
 H         -0.5392423681        3.3093812778        0.8814689667
 H         -0.5449959600        3.3092525149       -0.8840662466
 H         -2.0693388722        3.2603995427        0.0037091986
  24
  -31.8104007800000       5.761095940965799E-003 !gc
 C         -1.1118469940       -2.9223987047        0.0000661590
 C         -1.0016517078       -1.4234625327        0.0002734948
 C         -2.1690688543       -0.7016070359       -0.0004150043
 C         -2.1739130488        0.6954451499       -0.0003969529
 C         -1.0049110760        1.4099540640        0.0001452097
 C          0.2273946610        0.7043523414        0.0001196356
 C          0.2345294092       -0.7223699455        0.0002946102
 C          1.4871177411       -1.3765730677        0.0001870355
 C          2.6628648236       -0.6813872495        0.0000731238
 C          2.6523449513        0.7186038240       -0.0003065394
 C          1.4627741929        1.3892286701       -0.0003636889
 C         -1.0401350741        2.9094370663        0.0004820374
 H         -1.6547607510       -3.2509560361       -0.8858875871
 H         -0.1508596094       -3.4229482089        0.0114476269
 H         -1.6748548067       -3.2497091193        0.8737339939
 H         -3.1145479729       -1.2263167150       -0.0007118196
 H         -3.1224101184        1.2142289001       -0.0005816402
 H          1.5269840644       -2.4545694237        0.0000424645
 H          3.6058462929       -1.2089225656        0.0001850413
 H          3.5864640323        1.2614479555       -0.0006326423
 H          1.4646988195        2.4679290653       -0.0009654338
 H         -0.5456147246        3.3093576298       -0.8842452638
 H         -2.0694104305        3.2603381983        0.0044414636
 H         -0.5387743814        3.3093847269        0.8812775815
  24
  -31.8104005000000       5.759389212474151E-003 !gc
 C         -1.1120352706       -2.9224211549        0.0016846520
 C         -1.0016701955       -1.4234848721        0.0002266100
 C         -2.1690718821       -0.7016131811       -0.0014418188
 C         -2.1738982412        0.6954304940       -0.0016041754
 C         -1.0048872921        1.4099258261        0.0000661853
 C          0.2274008377        0.7043172923        0.0001442189
 C          0.2345378551       -0.7224221200        0.0001506789
 C          1.4871880737       -1.3765215080       -0.0002464400
 C          2.6629281390       -0.6813063219       -0.0004705849
 C          2.6523609381        0.7186818020       -0.0004090334
 C          1.4627611947        1.3892378271       -0.0001381976
 C         -1.0400774057        2.9094089423        0.0016992235
 H         -1.6738114522       -3.2487329945        0.8765969567
 H         -1.6564757017       -3.2519942013       -0.8830224822
 H         -0.1511510141       -3.4231556325        0.0121595774
 H         -3.1145490205       -1.2263303988       -0.0024719949
 H         -3.1223980959        1.2141953105       -0.0024977871
 H          1.5272213146       -2.4545065364       -0.0005786317
 H          3.6059046383       -1.2088467239       -0.0007756437
 H          3.5864584287        1.2615733889       -0.0008648273
 H          1.4646712125        2.4679389791       -0.0006777918
 H         -0.5459964186        3.3100915366       -0.8829359673
 H         -2.0693314620        3.2603669349        0.0065180544
 H         -0.5382316010        3.3085402601        0.8825865559
  24
  -31.8104004500000       5.759084492734249E-003 !gc
 C         -1.1118460954       -2.9224015182       -0.0004178637
 C         -1.0016577644       -1.4234679299        0.0002053130
 C         -2.1690677582       -0.7016153481       -0.0000639781
 C         -2.1739162228        0.6954468119        0.0000241807
 C         -1.0049195210        1.4099546264        0.0001897050
 C          0.2273903832        0.7043381214        0.0000624988
 C          0.2345250381       -0.7223801749        0.0002735397
 C          1.4871062717       -1.3765637687        0.0003394140
 C          2.6628617830       -0.6813687957        0.0002887182
 C          2.6523453180        0.7186202781       -0.0002619612
 C          1.4627600789        1.3892243315       -0.0004615902
 C         -1.0400911666        2.9094358341        0.0000952673
 H         -1.6575827647       -3.2504881896       -0.8848012948
 H         -0.1508235051       -3.4229462760        0.0076149014
 H         -1.6720912538       -3.2501865352        0.8748629841
 H         -3.1145621817       -1.2262976001       -0.0002518983
 H         -3.1224208075        1.2142157674        0.0001438785
 H          1.5270297791       -2.4545622688        0.0003944879
 H          3.6058305269       -1.2089249758        0.0006013889
 H          3.5864605618        1.2614719505       -0.0006026164
 H          1.4646738639        2.4679232574       -0.0011599721
 H         -0.5386799032        3.3096995486        0.8807292695
 H         -0.5456146376        3.3089666813       -0.8848080245
 H         -2.0693558307        3.2603943799        0.0040206931
