  24
        -31.81316421
 C         -1.0439846350       -2.9150192437       -0.0001634103
 C         -1.0108260913       -1.4156757956        0.0000332958
 C         -2.1783137667       -0.7001147373       -0.0000448918
 C         -2.1782868303        0.7002049820        0.0000290689
 C         -1.0107714403        1.4157151180        0.0000022751
 C          0.2239571737        0.7115433666       -0.0000356746
 C          0.2239295454       -0.7115546669        0.0000951433
 C          1.4645948712       -1.3852586466        0.0002297379
 C          2.6470602034       -0.7002089487        0.0001583440
 C          2.6470879808        0.7001013335       -0.0001768718
 C          1.4646528528        1.3852001142       -0.0002468864
 C         -1.0438595181        2.9150620147        0.0001351220
 H         -2.0723025917       -3.2686246590        0.0011090771
 H         -0.5456754294       -3.3131503185       -0.8835729705
 H         -0.5433160468       -3.3135996724        0.8816809633
 H         -3.1265754215       -1.2194119306       -0.0000743412
 H         -3.1265312615        1.2195454223        0.0001073135
 H          1.4782154700       -2.4640478038        0.0003817746
 H          3.5863761365       -1.2342839128        0.0003622536
 H          3.5864234428        1.2341315541       -0.0003004676
 H          1.4783139873        2.4639850937       -0.0004274732
 H         -0.5439007585        3.3135078924       -0.8821715889
 H         -2.0721430570        3.2687187652       -0.0003504485
 H         -0.5447042852        3.3132904638        0.8830741509
