! pbe def2-sv(p) def2/J RI DEFGRID1 loosescf d4 GCP(DFT/SV(P)) printgap
%output
    printlevel normal
end
* xyz 0 1
C -1.6526572663 -0.623690832 1.3049291961
C -1.2179833813 -0.474380292 -0.1517285391
C -2.3925878596 0.0297322812 -0.9936033292
C 0.0319137545 0.4169362583 -0.3285208844
C -0.1817530984 1.8136268458 0.2613678752
C 1.3159745029 -0.2209378871 0.2467923388
C 1.5724815389 -1.6234665031 -0.3088699354
C 2.5383730423 0.6505715837 -0.0529858694
H -2.4910697487 -1.3140206444 1.3705885269
H -0.8445747733 -1.0150325632 1.9170631068
H -1.9690242447 0.3315478715 1.7149400759
H -0.9679395676 -1.4676139754 -0.5349759567
H -2.7896415872 0.9646896291 -0.6067871583
H -3.1967760343 -0.7027241307 -0.9813659862
H -2.0876342414 0.184678021 -2.0261127712
H 0.184113919 0.5264657565 -1.4098562791
H -1.1635627611 2.1968190236 0.0004898498
H 0.553685956 2.5118154793 -0.1275850198
H -0.0950523438 1.7913168106 1.3449955971
H 1.2137444598 -0.2935458823 1.3348417156
H 2.5585416654 -1.9672358577 -0.0040481716
H 0.8459729269 -2.3424732465 0.0586726712
H 1.5365183275 -1.6136779327 -1.3962854658
H 2.4786541133 1.6099273489 0.4514507342
H 2.6265422928 0.8236272854 -1.1236462351
H 3.4435109995 0.1521115126 0.2871699067
*
