! r2scan-3c def2/J RI DEFGRID2 scfconv6 printgap
%output
    printlevel normal
end
%cpcm
    smd true
    smdsolvent "water"
end
* xyz 0 1
C -2.6985312794 -0.9381177606 -0.8085606648
C -1.8935024814 -0.2412197609 0.2865448805
C -2.8371649176 0.5282861741 1.2098681173
C -0.8502802607 0.7104931899 -0.3152228696
C 0.3665290453 0.0011559181 -0.9274713027
C 1.651350435 -0.0016757274 -0.0758828469
C 2.6982547493 -0.850111126 -0.8078136531
C 2.2012157902 1.4187204027 0.0798652116
C 1.4044584532 -0.611715592 1.3050632278
H -2.0475122234 -1.4785076822 -1.4910834358
H -3.263392352 -0.2068618388 -1.38339834
H -3.3991734622 -1.6471978552 -0.373250597
H -1.3782558401 -1.0038020257 0.8782720673
H -3.3414465731 1.3203130645 0.659881419
H -3.5922600883 -0.1356759734 1.6243205205
H -2.2889288501 0.9789251351 2.0344246222
H -1.3446093392 1.3092080143 -1.0834979469
H -0.5203247599 1.4031647884 0.4591687933
H 0.610347489 0.4711040226 -1.8828355657
H 0.1026124996 -1.0362061161 -1.1417528483
H 2.8951162598 -0.4458290236 -1.798323075
H 3.633275632 -0.8642739952 -0.2524042279
H 2.3521482442 -1.8753686953 -0.9193912468
H 3.1398357829 1.3996666356 0.6292614058
H 2.3836861287 1.8652557631 -0.8950232643
H 1.5077634627 2.0557043902 0.6225093248
H 0.6898626073 -0.022369552 1.8727237899
H 2.334625032 -0.6499836461 1.8682524374
H 1.0221953544 -1.6257390563 1.2110076706
*
