  17
        -23.95150476
 C         -2.8974152299        0.1457125036        0.1087045372
 C         -1.6504765844       -0.7081944422        0.2906893947
 C         -0.3941347781        0.0449247490       -0.0875275576
 O         -0.3110243325        1.2341587039       -0.2382109424
 O          0.6331672818       -0.8028194232       -0.2318810035
 C          1.9065602390       -0.2370198416       -0.5486996529
 C          2.6252744888        0.2531655144        0.7000256484
 H         -3.0307467191        0.4032076176       -0.9388387583
 H         -3.7777079426       -0.3906989970        0.4530314968
 H         -2.8017001503        1.0694732538        0.6729571837
 H         -1.6978962517       -1.6198062594       -0.3064697842
 H         -1.5426563811       -1.0065103725        1.3367743724
 H          2.4621101392       -1.0428128266       -1.0328008739
 H          1.7604064099        0.5909401216       -1.2502055526
 H          2.0617314108        1.0621984449        1.1582268625
 H          2.7288247906       -0.5574011956        1.4174828078
 H          3.6121367139        0.6195816979        0.4322824942
