! pbe def2-sv(p) def2/J RI DEFGRID1 loosescf d4 GCP(DFT/SV(P)) printgap
%output
    printlevel normal
end
* xyz 0 1
C 4.966583775 0.5500510498 -1.0169845791
C 4.510655978 0.0230392511 0.3463532708
C 3.0626681278 -0.4146278503 0.2851721752
O 2.730977697 -1.5886257354 0.2270711061
N 2.1912583146 0.630425082 0.2769404291
C 0.8033974576 0.6230205892 0.1830238477
C 0.1357267497 1.8499484723 0.1837263141
C -1.239751351 1.9012813836 0.0940115003
C -1.9750874254 0.7288549412 0.0018051256
C -1.3158164564 -0.4936275301 5.30769e-05
C 0.0633734029 -0.5533468493 0.0896988185
Cl -2.2178154819 -1.9703534934 -0.1145159364
Cl -3.7038169239 0.7932634685 -0.1094685945
H 4.8384436305 -0.2175996938 -1.7764401234
H 6.0180746175 0.8190008038 -0.9734264511
H 4.3960593638 1.4256607904 -1.3137839617
H 4.6364326679 0.7922618379 1.108179692
H 5.1086124738 -0.846297948 0.6199839169
H 2.6004064332 1.5550468594 0.3352877461
H 0.6941343821 2.7693314598 0.2549846333
H -1.7556450925 2.8467984065 0.094730426
H 0.5625974381 -1.5077562101 0.0875816083
*
