! r2scan-3c def2/J RI DEFGRID2 scfconv6 printgap
%output
    printlevel normal
end
* xyz 0 1
C -1.178906924 0.1403438799 -0.4965225317
C -0.0507009974 0.4961392589 0.4887147606
C 0.9558736001 -0.6600939404 0.5913940143
O 1.6560418388 -0.8536564082 -0.6117230973
O 0.6748425029 1.6328458698 0.0689445889
O -2.0450402118 -0.8426475521 0.0145527536
H -0.7389765458 -0.2848844662 -1.4018914504
H -1.7364790316 1.0467250563 -0.7687050803
H -0.4800937735 0.6658854465 1.4884500695
H 0.4195655803 -1.5885845227 0.7947631786
H 1.6563078209 -0.4544645483 1.4115510196
H 2.0430412776 -0.0009156075 -0.863039902
H 0.084721408 2.3943874465 -0.0087599827
H -2.5235439856 -0.489506801 0.7782693142
*
