! r2scan-3c def2/J RI DEFGRID2 scfconv6 printgap
%output
    printlevel normal
end
%cpcm
    smd true
    smdsolvent "water"
end
* xyz 0 1
C 1.9594437143 0.1731176267 0.7710350349
C 1.4304156722 -0.68318385 -0.3757651014
C 0.2496127611 -0.071212999 -1.1352165988
C -1.0628411485 0.1390762196 -0.3551787266
H -1.858961256 0.2971730067 -1.0943567946
C -1.4424301322 -1.053445285 0.5217133405
O -1.0639859091 1.3502512149 0.382413256
H 2.916965329 -0.2144577714 1.1123672936
H 1.2819396574 0.1653395311 1.6216710268
H 2.1052862676 1.2004132267 0.4448053788
H 2.2357968042 -0.8250084117 -1.1004010467
H 1.1571470141 -1.6704090412 -0.0010417533
H 0.5453768582 0.9018938836 -1.5352914029
H 0.0233623604 -0.721117628 -1.9827424356
H -1.4808176054 -1.9567089919 -0.0797777775
H -0.7234112087 -1.1912661049 1.3249293089
H -2.4213237392 -0.8822429041 0.9630606264
H -0.4077623658 1.2859360964 1.0896206151
*
