! r2scan-3c def2/J RI DEFGRID2 scfconv6 printgap
%output
    printlevel normal
end
* xyz 0 1
C 2.2313048369 -0.9799584635 -0.7313351319
C 1.6060905751 0.3419916091 -0.3036954505
C 0.3511604373 0.1771528977 0.5663708658
H 0.62916458 -0.4069410556 1.4619198738
C -0.8043358129 -0.5700034102 -0.1266531503
C -1.9456322884 -0.7786845463 0.8686026803
C -1.3089068508 0.1792628472 -1.3577029205
O -0.1381948214 1.4443581479 0.9774231998
H 2.401537777 -1.617021138 0.1338058552
H 3.1859958912 -0.7970981063 -1.2178442522
H 1.5909850398 -1.5104088299 -1.4303411453
H 2.3412919105 0.9046032585 0.2788165371
H 1.3552795644 0.94132113 -1.1796954189
H -0.4287409729 -1.5516859398 -0.4293962337
H -1.6032659986 -1.3464457456 1.731033834
H -2.3136753661 0.1845528478 1.2125648422
H -2.7626803634 -1.3201788518 0.3989353572
H -1.5651299306 1.1997167576 -1.0843352502
H -2.1957030763 -0.3101681107 -1.7522849395
H -0.5557127052 0.2028554633 -2.1404295892
H 0.5689689284 1.926489221 1.4244348598
*
