  11
  -18.5834078000000       0.265180991201727      !mtd7
 C          0.0000670007        1.2917079902       -0.0004076797
 C         -0.9275706330        0.4462462449        0.8574310471
 Cl        -2.0920444624       -0.4466816537       -0.1620198789
 C          0.9274286637        0.4453286930       -0.8576684741
 Cl         2.0920756628       -0.4465071550        0.1622793417
 H         -0.5913197714        1.9303760863       -0.6601090827
 H          0.5917741455        1.9304224538        0.6589666950
 H         -0.3665864199       -0.2960157811        1.4246177314
 H         -1.5148739196        1.0672740044        1.5326076812
 H          1.5145051409        1.0655982987       -1.5336070188
 H          0.3662967387       -0.2975046666       -1.4239149950
  11
  -18.5834078000000       0.265180991201727      !mtd5
 C          0.0000908084        1.2915056812       -0.0002114002
 C         -1.0799902157        0.4454336132       -0.6550523717
 Cl        -2.0175832488       -0.4463080132        0.5768367633
 C          1.0802671369        0.4458080274        0.6549578498
 Cl         2.0174290178       -0.4466676491       -0.5767087960
 H          0.4478892686        1.9301505924       -0.7646913268
 H         -0.4478907746        1.9301938488        0.7641160378
 H         -1.7900332227        1.0660242229       -1.2000688985
 H         -0.6432909907       -0.2972670667       -1.3222067062
 H          0.6438278821       -0.2966507919        1.3225237484
 H          1.7905407511        1.0665848876        1.1994715105
  11
  -18.5825794000000       0.110366204888481      !md3
 C          0.0739082784        0.6542931935        0.6758589044
 C         -1.3805151716        0.9746091054        0.3690044093
 Cl        -2.2918437429       -0.5063158615       -0.0422130213
 C          0.7926141698        0.0895291934       -0.5404924789
 Cl         2.5090674075       -0.2035916206       -0.1576756151
 H          0.5668003065        1.5752847184        0.9957313084
 H          0.1288419539       -0.0637753995        1.4958387363
 H         -1.8735569843        1.4131786078        1.2357673587
 H         -1.4692470749        1.6441643180       -0.4864100680
 H          0.7676429659        0.7889070232       -1.3765023177
 H          0.3638288066       -0.8649828914       -0.8438339562
  11
  -18.5825793800000       0.110363869134031      !md5
 C         -0.0738269636        0.6536932664       -0.6763473798
 C         -0.7926833527        0.0899800627        0.5404049193
 Cl        -2.5092383680       -0.2034553765        0.1578254398
 C          1.3806266434        0.9742649665       -0.3695796229
 Cl         2.2919681339       -0.5062877144        0.0425393788
 H         -0.1286599560       -0.0649024214       -1.4958649079
 H         -0.5665039536        1.5745402869       -0.9969019550
 H         -0.3639628931       -0.8641576540        0.8447127956
 H         -0.7680395382        0.7903188617        1.3756620213
 H          1.4693592663        1.6445498323        0.4852925006
 H          1.8736622234        1.4125223456       -1.2365220154
  11
  -18.5825793700000       0.110362701275759      !mtd8
 C          0.0443871794        0.8891720881        0.3123475913
 C         -1.3382425211        0.6360459707        0.8925194466
 Cl        -2.3031791433       -0.4157502412       -0.1821081085
 C          0.8534103674       -0.3953516677        0.2093221507
 Cl         2.4890195385       -0.0429631209       -0.4061121192
 H         -0.0471251413        1.3411419869       -0.6767768972
 H          0.5639652207        1.5960578395        0.9633336347
 H         -1.2797491486        0.1295510656        1.8558028135
 H         -1.8930682429        1.5677131001        0.9968311391
 H          0.3927761238       -1.0963982309       -0.4858782127
 H          0.9749633219       -0.8672257963        1.1847125146
  11
  -18.5825793700000       0.110362701275759      !mtd7
 C         -0.0444792540        0.8890242303       -0.3130656535
 C         -0.8533948678       -0.3953985548       -0.2088860182
 Cl        -2.4890060680       -0.0425825243        0.4060880952
 C          1.3381390153        0.6354374233       -0.8930064979
 Cl         2.3032257167       -0.4157951532        0.1824461362
 H         -0.5641107136        1.5954658794       -0.9645880596
 H          0.0471014043        1.3418529540        0.6756906561
 H         -0.9747553284       -0.8681757683       -1.1839754336
 H         -0.3926970155       -1.0959004372        0.4867822789
 H          1.8931330830        1.5669836135       -0.9977660705
 H          1.2796003803        0.1283786992       -1.8560496422
  11
  -18.5810545700000       2.198228126262817E-002 !mtd4
 C         -0.0000006996       -0.1274861180        0.0005012105
 C         -1.2451112901        0.7406341907        0.1146291235
 Cl        -2.6985830435       -0.2849688370        0.2502461277
 C          1.2449300770        0.7404687147       -0.1161777003
 Cl         2.6986704785       -0.2852071803       -0.2497866933
 H          0.0815039780       -0.7678239595        0.8805275896
 H         -0.0814383779       -0.7703869094       -0.8776738631
 H         -1.2145358017        1.3668855497        1.0062889804
 H         -1.3786989581        1.3647927002       -0.7689847784
 H          1.3784360948        1.3672252660        0.7656009037
 H          1.2138253580        1.3644577721       -1.0094381769
  11
  -18.5792035400000       3.100261101607151E-003 !mtd10
 C          0.0482917040        1.5051945957        0.2642654330
 C         -1.3243398086        0.9775209583       -0.1304653219
 Cl        -1.5763844322       -0.7138102724        0.3885389445
 C          1.1925157842        0.9767964313       -0.5900957536
 Cl         1.6123109964       -0.7139585647       -0.1922516541
 H          0.0273021292        2.5925981482        0.1479363675
 H          0.2400705515        1.2804459119        1.3146343725
 H         -2.1083300835        1.5620693851        0.3503179431
 H         -1.4598937498        1.0000529516       -1.2118634451
 H          2.0957493317        1.5616679209       -0.4183046933
 H          0.9368234395        0.9985919378       -1.6495390239
  11
  -18.5792034600000       3.099998658281498E-003 !mtd2
 C         -0.0478944516        1.5054551265       -0.2644474952
 C         -1.1936072212        0.9779651811        0.5883871660
 Cl        -1.6119634988       -0.7140805717        0.1931486845
 C          1.3238681269        0.9767534855        0.1318317854
 Cl         1.5765318556       -0.7139821018       -0.3892052626
 H         -0.2383473253        1.2814243592       -1.3152887566
 H         -0.0260760327        2.5928509257       -0.1475645720
 H         -0.9404346325        1.0017944739        1.6483378863
 H         -2.0967827430        1.5619219864        0.4133222583
 H          1.4579465638        0.9981661912        1.2134585446
 H          2.1084571110        1.5617173841       -0.3473155621
