  11
        -18.58340780
 C          0.0000670007        1.2917079902       -0.0004076797
 C         -0.9275706330        0.4462462449        0.8574310471
 Cl        -2.0920444624       -0.4466816537       -0.1620198789
 C          0.9274286637        0.4453286930       -0.8576684741
 Cl         2.0920756628       -0.4465071550        0.1622793417
 H         -0.5913197714        1.9303760863       -0.6601090827
 H          0.5917741455        1.9304224538        0.6589666950
 H         -0.3665864199       -0.2960157811        1.4246177314
 H         -1.5148739196        1.0672740044        1.5326076812
 H          1.5145051409        1.0655982987       -1.5336070188
 H          0.3662967387       -0.2975046666       -1.4239149950
