! r2scan-3c def2/J RI DEFGRID2 scfconv6 printgap
%output
    printlevel normal
end
%cpcm
    smd true
    smdsolvent "water"
end
* xyz 0 1
C 2.749324739 0.4951238763 -0.3682522367
C 1.2991844147 0.8984483997 -0.1219415098
C 0.3176033879 -0.2772361131 -0.2300752007
H 0.5481307821 -0.8119333539 -1.159988671
C 0.5060066523 -1.2504099837 0.9325406586
C -1.1359496945 0.2273190501 -0.3614758798
C -2.0715523431 -0.8769186572 -0.8550688273
C -1.6859540467 0.8322379976 0.9289005965
H 2.8508127662 0.0109479638 -1.3372360226
H 3.3895116449 1.3742426719 -0.3561727926
H 3.102226156 -0.1896811536 0.3979340575
H 1.0213165282 1.6575903968 -0.8574978125
H 1.219989178 1.3521709207 0.8677075429
H 1.4858569596 -1.7171147303 0.8775179569
H 0.4283070168 -0.7332923271 1.8854524125
H -0.2388292695 -2.0406510001 0.902018971
H -1.1290039111 1.0146513507 -1.1257120808
H -3.0607787431 -0.4687214326 -1.0493777321
H -2.1734345142 -1.6643542241 -0.1126698446
H -1.6959702506 -1.317098987 -1.7760751269
H -2.6672982727 1.2638372399 0.7441078543
H -1.035081549 1.6189104437 1.3003858032
H -1.7914858535 0.0717591978 1.6978075763
*
