! pbe def2-sv(p) def2/J RI DEFGRID1 loosescf d4 GCP(DFT/SV(P)) printgap
%output
    printlevel normal
end
* xyz 0 1
C 0.5177703662 1.9257070241 0.3591391458
C 1.8688149818 2.1784016542 0.4360907404
C 2.8100581004 1.1732974118 0.2015256549
C 2.3441308823 -0.1152041409 -0.1177750374
C 0.9720861993 -0.3540610545 -0.1860412487
C 0.0457914186 0.6479304048 0.048603387
C -1.3998521023 0.3896607696 -0.0369882209
C -2.249215527 1.2881704964 -0.6830721853
C -3.6092907828 1.0612038253 -0.7801308562
C -4.1300284393 -0.0864908395 -0.2136837335
C -3.3382317484 -1.0061568452 0.446425505
C -1.9832807387 -0.7466206468 0.5185948786
F -1.2150263201 -1.6400339835 1.1947416347
F -5.4645598464 -0.3242547623 -0.3015572746
C 3.2369534429 -1.2543858973 -0.3973995621
O 2.8305510092 -2.342298088 -0.7745908997
O 4.5254958132 -1.0215469256 -0.2088627174
O 4.1251632629 1.4186633456 0.2673190989
H -0.1854077011 2.7180898843 0.5614385964
H 2.2117027862 3.1713774498 0.6851418065
H 0.6607938106 -1.3551788599 -0.4440870612
H -1.8255133204 2.1708957871 -1.1331499647
H -4.2606066818 1.7539720429 -1.2860600817
H -3.7563325847 -1.8926573129 0.8928008449
H 5.0720575637 -1.8052540436 -0.4092139714
H 4.3003532385 2.3491241047 0.4878664902
*
