  8
        -15.78951644
 C         -1.4783409439        0.0004146915       -0.1038196670
 C         -0.0413458967        0.0000182801        0.3688661408
 F          0.6238127136        1.0833413707       -0.1052285684
 F          0.6231445985       -1.0836901980       -0.1052234682
 H         -1.5000073915       -0.0008511165       -1.1911356029
 H         -1.9813394463       -0.8872278846        0.2682538573
 H         -1.9802168545        0.8895020600        0.2662663703
 H          0.0669460158       -0.0000075034        1.4650078516
