  8
  -15.7895164400000       0.333335684869117      !md2
 C         -1.4783409439        0.0004146915       -0.1038196670
 C         -0.0413458967        0.0000182801        0.3688661408
 F          0.6238127136        1.0833413707       -0.1052285684
 F          0.6231445985       -1.0836901980       -0.1052234682
 H         -1.5000073915       -0.0008511165       -1.1911356029
 H         -1.9813394463       -0.8872278846        0.2682538573
 H         -1.9802168545        0.8895020600        0.2662663703
 H          0.0669460158       -0.0000075034        1.4650078516
  8
  -15.7895164400000       0.333335684869117      !mtd12
 C         -1.4783522386        0.0004167415       -0.1038276107
 C         -0.0413459917        0.0000644677        0.3689137256
 F          0.6238015979        1.0833257862       -0.1052274193
 F          0.6231588267       -1.0837119385       -0.1052413339
 H         -1.9808986613       -0.8880655844        0.2667568672
 H         -1.9806875979        0.8887128631        0.2675815668
 H         -1.4999790490        0.0009366544       -1.1911542429
 H          0.0670246902       -0.0000396607        1.4650509840
  8
  -15.7895164200000       0.333328630261767      !mtd6
 C         -1.4783459621        0.0005076982       -0.1038294269
 C         -0.0413247545       -0.0000156994        0.3688899989
 F          0.6237220772        1.0833144138       -0.1052386285
 F          0.6232197103       -1.0837319577       -0.1052198467
 H         -1.9804423533        0.8891703346        0.2670657464
 H         -1.5000079162        0.0002636912       -1.1912454009
 H         -1.9810635466       -0.8874447169        0.2674446766
 H          0.0669966251        0.0000181017        1.4650808112
