! r2scan-3c def2/J RI DEFGRID2 scfconv6 printgap
%output
    printlevel normal
end
* xyz 0 1
C -2.0345741265 1.1691249654 0.7990806437
C -1.9619706208 -0.0864052319 -0.058471038
C -0.5623231231 -0.5155152173 -0.4159368153
O -0.3138073394 -1.4711629394 -1.1284714692
O 0.3755164624 0.2437073553 0.1234650801
C 1.7472250514 -0.0865820439 -0.1477798734
C 2.6241907319 0.7126414159 0.7967149373
H -1.5770523092 2.0097447731 0.2853704065
H -3.0732920657 1.4087313183 1.0069325065
H -1.5138786753 1.0200151659 1.7404343727
H -2.500867075 0.0501253355 -0.9986021555
H -2.4290459243 -0.9323302589 0.4512570212
H 1.8779543947 -1.1656806168 -0.0147876412
H 1.9569970318 0.1552035652 -1.1948699325
H 3.6663507912 0.489267186 0.5937360501
H 2.4502782054 1.7750053483 0.6548277671
H 2.3968249726 0.4545876057 1.8268230285
*
