! pbe def2-sv(p) def2/J RI DEFGRID1 loosescf d4 GCP(DFT/SV(P)) printgap
%output
    printlevel normal
end
* xyz 0 1
C -2.7241323412 -0.7865054014 -0.9725911333
C -1.9768199323 -0.2818521286 0.2598969242
C -2.9481251168 0.4342747541 1.1972536338
C -0.8299641145 0.6576727303 -0.1330750293
C 0.3466541235 -0.0607965817 -0.8133760746
C 1.6935220527 0.0055813406 -0.0682992751
C 2.7255371948 -0.7788357674 -0.8873016375
C 2.1744146874 1.4527017515 0.06275731
C 1.5790921614 -0.635802903 1.3164684084
H -3.1878999077 0.0466408363 -1.4969203263
H -3.5045035636 -1.4873656053 -0.6843737691
H -2.0502937422 -1.2899381974 -1.6609747226
H -1.5540597944 -1.1411995393 0.7922953934
H -3.3625529818 1.3149257747 0.7107545032
H -3.769172269 -0.2237676929 1.4721220003
H -2.4439804582 0.7507092392 2.1077826302
H -1.2280636933 1.4279059295 -0.7967201393
H -0.4846611842 1.1654475297 0.767381647
H 0.4969654405 0.3531369498 -1.8125138609
H 0.0951929807 -1.115768324 -0.9404382151
H 3.6964964084 -0.7566519751 -0.3977215619
H 2.4212177625 -1.817642349 -0.995338937
H 2.8338951407 -0.3490586436 -1.8807361411
H 3.1521007498 1.4820086579 0.5387882087
H 2.2567376496 1.9148485369 -0.9184385459
H 1.489657043 2.0461167827 0.6624816393
H 0.8677639011 -0.1035546605 1.9419441847
H 2.5446424009 -0.6240141887 1.8173364267
H 1.2517141242 -1.6694973343 1.2293104381
*
