! pbe def2-sv(p) def2/J RI DEFGRID1 loosescf d4 GCP(DFT/SV(P)) printgap
%output
    printlevel normal
end
* xyz 0 1
C 3.0259566547 0.2327179065 -1.6758934577
C 3.5316969715 0.771156243 -0.335772861
C 3.3513258184 -0.2587419872 0.7532654399
O 4.3035150073 -0.8336884212 1.2686395064
N 2.0933533614 -0.6114857825 1.1192295222
C 0.8498789032 -0.1172597118 0.7026573547
C 0.5444778073 1.2417458608 0.7141951779
C -0.7026196705 1.6802401032 0.311717532
C -1.6687394635 0.7712215552 -0.0906582975
C -1.3811099581 -0.5892378666 -0.0724122614
C -0.1323466996 -1.0319084385 0.32405453
Cl -2.5856331682 -1.7425088071 -0.546855167
Cl -3.2313010055 1.3280421765 -0.5932211108
H 1.9533907379 0.0592330808 -1.647441399
H 3.5254327304 -0.7020021804 -1.9197130714
H 3.2400105835 0.9521762417 -2.4608394912
H 3.0147320533 1.6949624966 -0.0906731838
H 4.6011302267 0.9759137635 -0.4016723222
H 2.0610162677 -1.4446641367 1.6969651914
H 1.2680364657 1.9584934262 1.0632055267
H -0.9392734822 2.7310346499 0.3185036556
H 0.076287031 -2.08922647 0.3304046929
*
