  17
        -23.95560997
 C         -1.3731739554        1.1894002472        0.8336606569
 C         -1.2605157528        0.1131089704       -0.2427634608
 C         -2.5390436899       -0.7166250159       -0.3102361247
 C         -0.0562788324       -0.7923227140        0.0367958750
 C          1.2543346914       -0.0734880572       -0.1466331335
 O          1.4762048911        0.8077496794       -0.9319068803
 O          2.1998840410       -0.5523440947        0.6761483301
 H         -0.4730262993        1.7985665017        0.8576711730
 H         -1.5140190956        0.7365861844        1.8134489567
 H         -2.2200012789        1.8406090860        0.6313342162
 H         -1.0959063878        0.6011238072       -1.2084633072
 H         -2.4775739368       -1.4613438811       -1.1004976914
 H         -2.7092350400       -1.2293620483        0.6343724042
 H         -3.3944791834       -0.0762939480       -0.5104839767
 H         -0.0542768031       -1.6303101080       -0.6660046226
 H         -0.0932137385       -1.2016087743        1.0470888666
 H          3.0431760185       -0.0964290530        0.5257611181
  17
        -23.95518775
 C         -2.2527463481       -0.1487840530        1.3497092589
 C         -1.0980154584        0.3246301059        0.4716742036
 C         -1.5906574147        0.6362609415       -0.9387204270
 C          0.0026135505       -0.7495889423        0.4311999263
 C          1.2253337277       -0.2507173001       -0.2902236565
 O          1.6373958228       -0.6527616179       -1.3447501013
 O          1.8371014405        0.7328295205        0.3867941315
 H         -3.0339316217        0.6067942929        1.3836815649
 H         -1.9148911333       -0.3378983399        2.3659376636
 H         -2.6807736983       -1.0663638974        0.9519289780
 H         -0.6699337804        1.2322555729        0.9096770314
 H         -2.0326084531       -0.2498312524       -1.3892928134
 H         -2.3431817567        1.4210557628       -0.9130614316
 H         -0.7712015757        0.9659935890       -1.5729367033
 H         -0.3619228930       -1.6424100964       -0.0772555538
 H          0.2933152026       -1.0036841455        1.4517928072
 H          2.6138895000        1.0458344864       -0.1024458974
  17
        -23.95471687
 C         -1.2498150167        0.4204778927        1.4580126045
 C         -1.3476073734        0.5397679259       -0.0611043118
 C         -1.9328974751       -0.7303505118       -0.6700669318
 C          0.0319859644        0.8608350076       -0.6707033504
 C          1.0819435315       -0.1256534442       -0.2322097730
 O          1.1469054796       -1.2844415919       -0.5446558648
 O          1.9827937257        0.4417937335        0.5831905211
 H         -2.2416525760        0.3274741400        1.8943516131
 H         -0.7665444472        1.2969615281        1.8841831431
 H         -0.6736017989       -0.4602901343        1.7334933032
 H         -2.0070016279        1.3814929972       -0.3024196253
 H         -1.2539331114       -1.5664837067       -0.5262971388
 H         -2.8845890479       -0.9692338152       -0.2011459115
 H         -2.0977589420       -0.6032865792       -1.7375974786
 H          0.3526194051        1.8562616621       -0.3632634851
 H         -0.0419711826        0.8210321669       -1.7586185652
 H          2.6462373368       -0.2084228939        0.8638371728
  17
        -23.95457385
 C         -2.1960907374        0.5425320170        1.3453330419
 C         -1.1711180385        0.4702707710        0.2157350790
 C         -1.8063269282       -0.1007845418       -1.0482072198
 C          0.0283611465       -0.3806320080        0.6625713229
 C          1.2377027900       -0.2133258114       -0.2193929522
 O          1.2555376480       -0.1549355725       -1.4191979356
 O          2.3623266265       -0.1361571183        0.5093834164
 H         -1.7640363426        0.9941670012        2.2355510141
 H         -2.5494552341       -0.4541954160        1.6009913713
 H         -3.0509447304        1.1405601369        1.0393532144
 H         -0.8136526114        1.4832050169        0.0010601669
 H         -2.6131848089        0.5432824416       -1.3897263462
 H         -1.0660843291       -0.1789787703       -1.8386217567
 H         -2.2154154001       -1.0901741100       -0.8526038945
 H         -0.2526780865       -1.4369172382        0.6406277466
 H          0.3240623052       -0.1278280804        1.6815499574
 H          3.1362098829       -0.0425975081       -0.0687730759
  17
        -23.95423997
 C         -1.3765460922        1.5536875362       -0.0205252852
 C         -1.3838982769        0.1133209446       -0.5267254930
 C         -1.9505455376       -0.8308958946        0.5303052150
 C          0.0208111393       -0.3188382400       -0.9686200818
 C          1.0954438284       -0.2020634179        0.0818731166
 O          0.9616082228       -0.1710600077        1.2746828554
 O          2.3090958974       -0.1535141858       -0.4929698199
 H         -0.9621761584        2.2243101824       -0.7706967721
 H         -0.7804384295        1.6304655619        0.8846004146
 H         -2.3890630743        1.8777527795        0.2074887202
 H         -2.0242329694        0.0623628089       -1.4160787194
 H         -1.9943765295       -1.8502331152        0.1521236606
 H         -1.3267104806       -0.8148088832        1.4186876071
 H         -2.9566694088       -0.5245212557        0.8063855163
 H          0.3483808658        0.2642084828       -1.8315499114
 H          0.0025046089       -1.3687095328       -1.2756064784
 H          3.0015809118       -0.1048612688        0.1849112860
  17
        -23.95423807
 C         -1.4852094373        1.4706940825       -0.4642083123
 C         -1.4058702813       -0.0537385309       -0.4843000271
 C         -1.8450960579       -0.6387223561        0.8556589283
 C          0.0014312016       -0.5311127407       -0.8624586377
 C          1.1048746948       -0.1391557444        0.0864429446
 O          1.0246019534        0.5219124059        1.0852150512
 O          2.2787576501       -0.6423144732       -0.3335383880
 H         -0.8304867450        1.8695599952        0.3048482661
 H         -2.5023635832        1.7909895521       -0.2519370903
 H         -1.1890409920        1.8848127117       -1.4259327310
 H         -2.0844372202       -0.4249030668       -1.2625965143
 H         -1.7984749098       -1.7256919892        0.8355743390
 H         -1.2018082210       -0.2756814493        1.6516401095
 H         -2.8678673463       -0.3436948588        1.0771672581
 H          0.2799852430       -0.1409936233       -1.8448905356
 H          0.0235232644       -1.6212719033       -0.9371516595
 H          2.9900949152       -0.3884634981        0.2753076897
  17
        -23.95423663
 C         -1.5509572012        1.4271032192       -0.5330306271
 C         -1.4135141517       -0.0910044804       -0.4512886401
 C         -1.7706535687       -0.5944338649        0.9450731699
 C         -0.0059101334       -0.5469233630       -0.8566485637
 C          1.1092510873       -0.1151770529        0.0608523204
 O          1.0829973822        0.7341181817        0.9090610579
 O          2.2248329547       -0.8190796019       -0.1975950246
 H         -2.5645995782        1.7263899214       -0.2774525310
 H         -1.3329073675        1.7798880837       -1.5390645410
 H         -0.8641555084        1.9025059405        0.1605590437
 H         -2.1101090002       -0.5409371080       -1.1696983076
 H         -2.7975130466       -0.3323343461        1.1882481039
 H         -1.6697399920       -1.6764110112        1.0025063445
 H         -1.1167379880       -0.1423550512        1.6854029897
 H          0.2396008036       -0.1534505533       -1.8472959370
 H          0.0390426583       -1.6359380575       -0.9252104217
 H          2.9480849306       -0.5268388749        0.3792767116
