! r2scan-3c def2/J RI DEFGRID2 scfconv6 printgap
%output
    printlevel normal
end
* xyz 0 1
C -3.3373053677 0.6445918944 0.4728437461
C -3.1365538052 0.6976181597 -0.896268115
C -1.9305805947 0.2883297632 -1.4372413534
C -0.9153941196 -0.1853498782 -0.6162572962
C -1.1248670518 -0.2407552726 0.7553036609
C -2.3283432289 0.1761257854 1.2969525807
C 0.3885091405 -0.6520590423 -1.2244560023
N 1.5200943936 -0.3860547898 -0.3749915914
C 2.1689180221 -1.2758165505 0.4308497607
C 3.1257296883 -0.5611208376 1.0916583162
N 3.0727676918 0.7461057906 0.7151139543
C 2.0996191918 0.8135682792 -0.1569841434
H -4.275675072 0.9683954887 0.896360218
H -3.9188452971 1.0627732465 -1.5440759693
H -1.7766963653 0.3349077369 -2.5051720022
H -0.342817461 -0.6040712279 1.4065870476
H -2.4770639966 0.1330905562 2.3652886698
H 0.3432713141 -1.7316064489 -1.3988394295
H 0.5421398264 -0.1534590774 -2.1855135838
H 1.9108777527 -2.3139211451 0.4617049836
H 3.8472631917 -0.8971531496 1.8089978917
H 1.78924576 1.7113422477 -0.6523823378
*
