! r2scan-3c def2/J RI DEFGRID2 scfconv6 printgap
%output
    printlevel normal
end
%cpcm
    smd true
    smdsolvent "water"
end
* xyz 0 1
C 1.9470667286 -0.2111031232 0.5222275351
O 1.0066580107 -0.2731045272 -0.5299248219
C 0.0280182869 0.7518925383 -0.5106512784
C -1.1179664841 0.4747322635 0.4662889032
N -1.9137676987 -0.6433331146 -0.0207867895
H 2.6636772323 -1.0060864149 0.3296702074
H 1.480187467 -0.3713522311 1.4990216949
H 2.460137034 0.7568475298 0.5262814113
H 0.4985062454 1.7148671527 -0.2750815147
H -0.373816029 0.7802480583 -1.5251173001
H -0.7012767658 0.3070892415 1.4737977317
H -1.7608868553 1.3575539601 0.5102362874
H -2.5694973549 -0.9426744018 0.6917403438
H -1.295199096 -1.4224921091 -0.2242967953
*
