! r2scan-3c def2/J RI DEFGRID2 scfconv6 printgap
%output
    printlevel normal
end
%cpcm
    smd true
    smdsolvent "water"
end
* xyz 0 1
C 1.7370076151 -1.4236858773 -0.1510161312
C 1.0546951984 -0.1283745297 0.2850550863
C 1.9899219663 1.0603455879 0.0685393807
C -0.2788399678 0.0731607204 -0.461823467
C -1.4727121061 0.1115197802 0.4930463022
O -2.7122879037 0.2273605794 -0.1749284483
H 1.084504817 -2.2759149224 0.0226991246
H 2.6567258247 -1.5765502182 0.4087708998
H 1.9824506552 -1.3844038204 -1.2100247124
H 0.8426723014 -0.2017547388 1.357641823
H 2.9138445144 0.922915592 0.6253234247
H 1.522237563 1.9823883101 0.4054946418
H 2.2374355841 1.1602040501 -0.9860355046
H -0.4402229909 -0.7367570454 -1.175140942
H -0.2503084129 1.0070624691 -1.0269678094
H -1.5366465228 -0.8249022646 1.0532147891
H -1.3529660228 0.9348785267 1.2113240346
H -2.7138241293 1.042597279 -0.6956614617
*
