! r2scan-3c def2/J RI DEFGRID2 scfconv6 printgap
%output
    printlevel normal
end
%cpcm
    smd true
    smdsolvent "water"
end
* xyz 0 1
C -2.3974989007 -0.629489163 -1.0050815777
C -1.843582296 0.2662599204 0.1005054477
C -1.5450450439 -0.5411614492 1.3619798965
C -0.5907356014 1.0057050873 -0.3833187436
O 0.4616177595 0.0892875587 -0.7075693453
C 1.5484334836 0.0558024435 0.0535658216
O 1.7235057099 0.7719333802 1.0182313832
C 2.5321276589 -0.9603468146 -0.4472878631
H -3.27570755 -1.162592833 -0.6516510441
H -1.6471622336 -1.355041342 -1.308612856
H -2.6762779456 -0.0371462977 -1.8725291284
H -2.5815542935 1.0375460584 0.3422265246
H -1.0990709621 0.0910907763 2.127252956
H -0.8509035799 -1.3498147353 1.1410981262
H -2.4596772439 -0.9738867578 1.7577202409
H -0.8034282284 1.5555073334 -1.3029562479
H -0.2272447491 1.6942817881 0.3858816879
H 2.0270589715 -1.9057220359 -0.6207056673
H 3.3333269753 -1.0784087691 0.2745211916
H 2.9386875354 -0.6148538173 -1.394624968
*
