  14
        -20.78546894
 C          1.1016836094        1.4357531547        0.2616411102
 C          0.7449884286        0.0594058235       -0.2848476005
 C          1.9376290627       -0.8829882935       -0.3169910947
 O         -0.2495669456       -0.5500216751        0.5852067887
 C         -1.5118759480       -0.3585906300        0.3290797919
 O         -1.9865309217        0.2809599737       -0.5770807612
 H          1.4837582195        1.3448431887        1.2749725210
 H          1.8593009173        1.8907086996       -0.3679614241
 H          0.2218259100        2.0753755425        0.2700536617
 H          0.2920145124        0.1575913267       -1.2789668132
 H          2.3465435239       -0.9919534588        0.6832797673
 H          2.7001706463       -0.4796329605       -0.9749781854
 H          1.6359897861       -1.8612507376       -0.6805590875
 H         -2.1236952782       -0.8864573364        1.0776530925
  14
        -20.78376472
 C          0.9753570234        1.4974256628        0.0833624211
 C          0.9626882888        0.0673617624       -0.4400153537
 C          1.3892514472       -0.9437253518        0.6159431151
 O         -0.3417450325       -0.2747863682       -0.9946746470
 C         -1.4140783489       -0.2949120981       -0.2525775423
 O         -1.5211551874       -0.0568289254        0.9236619422
 H          1.9892860513        1.7669064125        0.3609177844
 H          0.6245024729        2.1820582072       -0.6849583814
 H          0.3337161398        1.5875812237        0.9564589361
 H          1.6080008897       -0.0151093153       -1.3203314155
 H          0.7498016913       -0.8700797210        1.4921975649
 H          2.4145046858       -0.7424029851        0.9091988570
 H          1.3267242536       -1.9531701833        0.2169411835
 H         -2.2741798783       -0.5783751519       -0.8832029840
