  22
  -46.9724530800000       0.500034391333260      !md1
 C         -3.5250283107        0.0002146037        0.0000370684
 C         -2.8401027749       -0.9215531628       -0.7721074982
 C         -1.4549596518       -0.9153565376       -0.7669924933
 C         -0.7397935752       -0.0000053004        0.0000580345
 C         -1.4547903471        0.9154459278        0.7671877295
 C         -2.8399388781        0.9218424188        0.7722262994
 Cl        -0.5853870108        2.0510461661        1.7325013362
 C          0.7397926137       -0.0000233068       -0.0000072866
 C          1.4548814821       -0.9153883307        0.7671644753
 C          2.8400186665       -0.9217199220        0.7721959432
 C          3.5250400964       -0.0000619154       -0.0000535925
 C          2.8400296989        0.9215895229       -0.7722612787
 C          1.4548594579        0.9153115838       -0.7671883284
 Cl         0.5855888363        2.0509728970       -1.7325526590
 Cl         0.5855178852       -2.0510886443        1.7324436735
 Cl        -0.5857248669       -2.0510374156       -1.7324976172
 H         -4.6038346788        0.0002221103        0.0002750264
 H         -3.3693108520       -1.6410869677       -1.3757434356
 H         -3.3690046085        1.6412370504        1.3761946250
 H          3.3692184445       -1.6411562419        1.3759743925
 H          4.6038474025       -0.0000359359       -0.0000169152
 H          3.3691646330        1.6410612113       -1.3760682564
  22
  -46.9724529500000       0.499965608666740      !mtd12
 C         -3.5250599761        0.0004651962        0.0013272708
 C         -2.8407439380       -0.7713689226       -0.9211815204
 C         -1.4555669926       -0.7666600124       -0.9157397877
 C         -0.7397797785       -0.0002286818       -0.0003588992
 C         -1.4541517391        0.7665751510        0.9158735572
 C         -2.8392976756        0.7719792278        0.9230300640
 Cl        -0.5840135246        1.7313337756        2.0513682654
 C          0.7398071969       -0.0003469236       -0.0004405635
 C          1.4546645956       -0.7667508331        0.9157499569
 C          2.8397969817       -0.7706768366        0.9233027658
 C          3.5250162876        0.0017904297        0.0019792202
 C          2.8402169601        0.7727926712       -0.9208562253
 C          1.4550895439        0.7667582317       -0.9157143281
 Cl         0.5860471659        1.7305910237       -2.0528154859
 Cl         0.5852047642       -1.7320369273        2.0512547631
 Cl        -0.5872340157       -1.7315731652       -2.0524838545
 H         -4.6039010083        0.0007243557        0.0019814027
 H         -3.3705049487       -1.3745880957       -1.6406862103
 H         -3.3678423579        1.3755943028        1.6431187496
 H          3.3688242871       -1.3735125137        1.6436802099
 H          4.6038427516        0.0030016050        0.0032388018
 H          3.3695285623        1.3764762629       -1.6402718675
