  12
        -23.04000862
 C         -0.6914102409       -1.2074888432        0.0001084338
 C          0.6913620788       -1.2075181333        0.0000399884
 C          1.3711992197        0.0000106859        0.0000412421
 C          0.6914776239        1.2075523742        0.0000803521
 C         -0.6913611917        1.2076109188        0.0000578880
 C         -1.3711870902        0.0000964654        0.0000337054
 Br        -3.2738533816       -0.0000204875       -0.0000301279
 Br         3.2738405319       -0.0000222878       -0.0000285078
 H         -1.2352413969       -2.1392475133        0.0002453814
 H          1.2351537841       -2.1393292394       -0.0001099288
 H          1.2351933919        2.1393414260        0.0002128042
 H         -1.2350451947        2.1394867495       -0.0000090031
