! r2scan-3c def2/J RI DEFGRID2 scfconv6 printgap
%output
    printlevel normal
end
* xyz 0 1
C -1.4135064918 0.3777405732 1.7149968421
O -1.5111197089 -0.4651189917 0.5471387185
C -0.816266135 -0.126596316 -0.5342269657
C 0.7240956502 -0.028609285 -0.4507638213
Cl 1.2392871406 1.5026106908 0.2687872971
Cl 1.3159338099 -1.4109449716 0.4861243642
F -1.1029011677 -1.0589433192 -1.4837066534
F -1.2766433666 1.0537116342 -1.0883638715
H -1.5865946536 1.4195275103 1.4465052057
H -0.4423624351 0.2572321509 2.1937259421
H -2.2041592193 0.0153992428 2.3646258985
H 1.1364681794 -0.0865159672 -1.4613430126
*
