! pbe def2-sv(p) def2/J RI DEFGRID1 loosescf d4 GCP(DFT/SV(P)) printgap
%output
    printlevel normal
end
* xyz 0 1
C -2.1571884486 1.0981870629 0.5393149593
C -2.0854774846 -0.2900496539 -0.0850881022
C -0.8310130626 -0.4557130317 -0.9491281975
C 0.4131593257 -0.4204224053 -0.1008983442
O 0.6169770111 -1.1165589912 0.8715363697
O 1.285987819 0.4788125592 -0.5437654316
C 2.5211566892 0.6095953552 0.164503713
H -2.149691463 1.8651774603 -0.2314087555
H -3.0665503088 1.2036705337 1.124761158
H -1.3061057044 1.2631874181 1.19746959
H -2.9651982496 -0.4585811705 -0.7065157733
H -2.0691822509 -1.0464531779 0.701818285
H -0.763492114 0.3316709234 -1.6987929513
H -0.85956396 -1.4269499988 -1.4461082271
H 3.086843783 -0.320570143 0.1008124877
H 2.327710476 0.8351680282 1.2139498157
H 3.0520571158 1.4231262679 -0.3193276584
*
