  9
  -24.0723074200000       0.161236780933881      !md8
 C          0.9693674538        0.8137567428        0.0563177609
 C         -0.3521109112        0.0420203925       -0.0057696132
 F         -0.3861276707       -0.9248217194        0.9293609300
 F         -0.5610480756       -0.5522114756       -1.1816855102
 F         -1.4005794348        0.8436948899        0.2252824349
 O          2.0705338166       -0.0288196828       -0.0596542249
 H          1.0037051347        1.5070622485       -0.7874310167
 H          0.9676430936        1.3818046271        0.9982327910
 H          2.0592351164       -0.6914535225        0.6435047025
  9
  -24.0723074200000       0.161236780933881      !gc
 C          1.1985162727       -0.0173607209        0.4104866289
 C         -0.2900392859       -0.1831288066        0.0902731954
 F         -0.9037060158       -0.9596706576        0.9933904313
 F         -0.5144224876       -0.7204885616       -1.1099841420
 F         -0.9184197413        1.0065707737        0.1066908931
 O          1.8186451630        0.8843095498       -0.4488446492
 H          1.2701765930        0.2848433545        1.4656712372
 H          1.6903372640       -0.9833986569        0.2737457586
 H          1.3868714627        1.7470325594       -0.3952791635
  9
  -24.0723074200000       0.161236780933881      !mtd7
 C          1.1767383512        0.0674233333        0.4646488616
 C         -0.3035097233       -0.1331570466        0.1262959534
 F         -0.9046284076       -0.9410788474        1.0101707171
 F         -0.4446679924       -0.7042364713       -1.0837733217
 F         -0.9968222283        1.0061497482        0.0975725909
 O          1.8389526817        0.8042680944       -0.5123198031
 H          1.2436481506        0.6339831608        1.3964993820
 H          1.6129917090       -0.9317275930        0.6105518747
 H          1.7688304871        0.3620800355       -1.3685157869
  9
  -24.0723074100000       0.161235074743469      !mtd2
 C          0.9731413619        0.8001700344        0.1333082374
 C         -0.3493000915        0.0317558381        0.0527842974
 F         -0.4553369738       -0.9324198986        0.9686851216
 F         -0.4881790373       -0.5572346069       -1.1489258457
 F         -1.4014222406        0.8461918847        0.2108325917
 O          2.0661794983       -0.0131364933       -0.1489717103
 H          0.8922335611        1.6553309023       -0.5537869490
 H          1.0980696240        1.1647708248        1.1557064779
 H          1.9778336511       -0.3965729940       -1.0314224457
  9
  -24.0723074100000       0.161235074743469      !gc
 C          1.1259151486        0.2610393700       -0.5189174846
 C         -0.3165132148       -0.0834718364       -0.1363592807
 F         -0.3463010332       -1.0661272653        0.7822335933
 F         -1.0149628214       -0.5183423819       -1.1940186921
 F         -0.9855011840        0.9479828528        0.3813814957
 O          1.8930638392        0.5973450990        0.5920989394
 H          1.5296799553       -0.6028935790       -1.0671348811
 H          1.1093233059        1.1341558761       -1.1756114733
 H          1.9003049003       -0.1321116944        1.2257022736
  9
  -24.0723074000000       0.161233368571111      !md3
 C          1.1506001494        0.1663411063       -0.5034074277
 C         -0.3007225955       -0.1419942475       -0.1233806404
 F         -0.4118857194       -1.0963930906        0.8021943264
 F         -1.0139840401       -0.5362003042       -1.1868839314
 F         -0.9086491751        0.9515388826        0.3715436735
 O          1.8690732671        0.6910583076        0.5663610732
 H          1.6375666111       -0.7685027910       -0.7912107996
 H          1.1206396877        0.8458000190       -1.3679167035
 H          1.4487531203        1.5002378805        0.8858521756
  9
  -24.0697223800000       1.045832153422400E-002 !md3
 C          1.0285110351        0.6536993429       -0.3721468428
 C         -0.3386525421       -0.0137523100       -0.1094584282
 F         -0.2537443243       -0.9950789653        0.7935783555
 F         -0.8760424789       -0.5365288717       -1.2171147528
 F         -1.2371929480        0.8653356919        0.3693556363
 O          2.0382419044        0.1557527968        0.4438477498
 H          1.3243248992        0.4332232756       -1.4011069737
 H          0.8936237579        1.7392279831       -0.2595806887
 H          1.8224226320        0.2878618790        1.3755512307
  9
  -24.0697217800000       1.045168347657737E-002 !mtd5
 C          1.2567964635       -0.2028917631       -0.0565235798
 C         -0.2863788414       -0.2120099113       -0.0010455404
 F         -0.7612175640       -1.0330820552        0.9420752868
 F         -0.8230843738       -0.6202310957       -1.1648956790
 F         -0.7879620017        1.0031152845        0.2394306657
 O          1.7945603675        1.0724345425        0.0760009680
 H          1.6325017921       -0.7869768489        0.7876051053
 H          1.5565796553       -0.6905016587       -0.9954961427
 H          1.4757107183        1.6538788826       -0.6256001867
  9
  -24.0687882900000       3.892099623922119E-003 !mtd4
 C          0.9525850224        0.8258573734        0.0987369063
 C         -0.3431154531        0.0220402946        0.0207390130
 F         -0.4131093695       -0.9323600955        0.9489028029
 F         -0.5171363016       -0.5594443187       -1.1661782152
 F         -1.4022374820        0.8288018721        0.2150161752
 O          2.0141995523       -0.0583617419       -0.1092493014
 H          0.8967005477        1.6058521242       -0.6737776258
 H          0.9834448942        1.2945569951        1.0925221173
 H          2.8496140773        0.4190089352       -0.0657135383
  9
  -24.0687882700000       3.892017252792064E-003 !mtd9
 C          1.1788175282        0.0183315859        0.4573855562
 C         -0.2950558809       -0.1494092786        0.0960394716
 F         -0.9059189801       -0.9419286580        0.9955720352
 F         -0.4708281077       -0.7178195857       -1.0969963102
 F         -0.9586262463        1.0067137042        0.0909840745
 O          1.7609136473        0.8460833996       -0.5059998498
 H          1.2172944722        0.4541775491        1.4657738822
 H          1.6244533750       -0.9863922646        0.4740976792
 H          2.6944499864        0.9728921827       -0.3059266355
  9
  -24.0687882700000       3.892017252792064E-003 !mtd8
 C          1.1269765165        0.2153709012       -0.5316320796
 C         -0.3056168460       -0.1094159090       -0.1153759783
 F         -0.3695655425       -1.0864007670        0.7894229721
 F         -1.0163300100       -0.5219643562       -1.1807761026
 F         -0.9467331794        0.9455601761        0.3878218026
 O          1.8161955059        0.6353244658        0.6089500205
 H          1.5524249807       -0.6995240070       -0.9677402021
 H          1.0708042208        0.9977525314       -1.3016622438
 H          2.7273257338        0.8475179162        0.3797987193
