  9
        -24.07230742
 C          0.9693674538        0.8137567428        0.0563177609
 C         -0.3521109112        0.0420203925       -0.0057696132
 F         -0.3861276707       -0.9248217194        0.9293609300
 F         -0.5610480756       -0.5522114756       -1.1816855102
 F         -1.4005794348        0.8436948899        0.2252824349
 O          2.0705338166       -0.0288196828       -0.0596542249
 H          1.0037051347        1.5070622485       -0.7874310167
 H          0.9676430936        1.3818046271        0.9982327910
 H          2.0592351164       -0.6914535225        0.6435047025
  9
        -24.06972238
 C          1.0285110351        0.6536993429       -0.3721468428
 C         -0.3386525421       -0.0137523100       -0.1094584282
 F         -0.2537443243       -0.9950789653        0.7935783555
 F         -0.8760424789       -0.5365288717       -1.2171147528
 F         -1.2371929480        0.8653356919        0.3693556363
 O          2.0382419044        0.1557527968        0.4438477498
 H          1.3243248992        0.4332232756       -1.4011069737
 H          0.8936237579        1.7392279831       -0.2595806887
 H          1.8224226320        0.2878618790        1.3755512307
  9
        -24.06878829
 C          0.9525850224        0.8258573734        0.0987369063
 C         -0.3431154531        0.0220402946        0.0207390130
 F         -0.4131093695       -0.9323600955        0.9489028029
 F         -0.5171363016       -0.5594443187       -1.1661782152
 F         -1.4022374820        0.8288018721        0.2150161752
 O          2.0141995523       -0.0583617419       -0.1092493014
 H          0.8967005477        1.6058521242       -0.6737776258
 H          0.9834448942        1.2945569951        1.0925221173
 H          2.8496140773        0.4190089352       -0.0657135383
