! pbe def2-sv(p) def2/J RI DEFGRID1 loosescf d4 GCP(DFT/SV(P)) printgap
%output
    printlevel normal
end
* xyz 0 1
C -3.6531600588 -0.6996475263 0.0867281679
C -3.102424044 0.1007627184 1.0738009051
C -1.8631487789 0.6869368834 0.8847979523
C -1.1775180351 0.4688860712 -0.3025365245
C -1.7244407339 -0.3332552543 -1.2949379353
C -2.9643541986 -0.9144784701 -1.0955449432
O 0.0349755681 1.1093651142 -0.5261542398
C 1.190424536 0.4778296558 -0.1467548761
C 1.2242259343 -0.7748365806 0.4531343833
C 2.4424002232 -1.3333063883 0.8007821832
C 3.6238162773 -0.6564223304 0.5565185442
C 3.5858057324 0.5932824979 -0.0423366199
C 2.3781546838 1.1622665509 -0.3941408914
H -4.6190179342 -1.155550848 0.2385307498
H -3.6365037897 0.2703029473 1.9958355179
H -1.4189690206 1.3132963642 1.6434419851
H -1.1735428289 -0.4897906453 -2.2098868215
H -3.3906852316 -1.5373158923 -1.866537922
H 0.303754361 -1.3065147584 0.6452853381
H 2.4611462015 -2.3066928873 1.2668158819
H 4.5689727208 -1.0982142442 0.8303993527
H 4.5020422231 1.129275197 -0.2367906275
H 2.3268789466 2.133334604 -0.8608652741
*
