  19
        -23.02938436
 C         -1.7509575847        1.0739886655       -0.0248608151
 C         -0.8894509632       -0.1640245631       -0.0378026887
 O         -1.3742182611       -1.2675806711       -0.0398787965
 C          0.6267021588        0.0488752755       -0.0078623043
 C          1.3153879746       -1.1969588071       -0.5705694354
 C          1.0082811246        0.2147650556        1.4714665223
 C          1.0645217834        1.2813368881       -0.8005588621
 H         -1.4183675174        1.7749887933        0.7353726077
 H         -1.6893710014        1.5642677351       -0.9941418674
 H         -2.7845048599        0.7927122614        0.1610044775
 H          0.9639645441       -2.0849309732       -0.0521260153
 H          1.0868533447       -1.3097892641       -1.6280050378
 H          2.3935435623       -1.1217059975       -0.4517949307
 H          0.5463730481        1.1012181842        1.9005634314
 H          2.0878162178        0.3120158727        1.5640329167
 H          0.6888523355       -0.6532460827        2.0437097842
 H          0.7305532493        1.2132693379       -1.8337126216
 H          2.1509946189        1.3421854952       -0.8006342644
 H          0.6780919389        2.1993869069       -0.3665029475
  19
        -23.02882501
 C         -1.7880571323        0.4557058148        0.9569261981
 C         -0.8914941241       -0.1062112765       -0.1146414782
 O         -1.3427286170       -0.6661813281       -1.0832709934
 C          0.6236470409        0.0552060219        0.0526982718
 C          1.2297681478       -1.3541366747        0.0082644143
 C          1.0503284672        0.7557573591        1.3404110216
 C          1.1162805097        0.8594156624       -1.1587264799
 H         -1.6254733725        1.5257567204        1.0584331869
 H         -2.8263530395        0.2704473219        0.6932870817
 H         -1.5681597855       -0.0136784789        1.9124902054
 H          0.9012886176       -1.8714701995       -0.8894702197
 H          2.3158273624       -1.2976244235        0.0048169568
 H          0.9148440489       -1.9326700420        0.8747108707
 H          0.7267683430        0.2047216005        2.2200696072
 H          0.6559279177        1.7673927840        1.3947543379
 H          2.1364573937        0.8197788089        1.3681888256
 H          0.7132831369        1.8702579410       -1.1363974505
 H          0.7935845728        0.3797489854       -2.0792560494
 H          2.2022489980        0.9188069365       -1.1547672388
  19
        -23.02835041
 C         -1.6477877939       -0.7790479301        0.9510844843
 C         -0.8931138429       -0.0169759614       -0.1134259510
 O         -1.4787972090        0.5107098225       -1.0253667413
 C          0.6300437002        0.0525075334        0.0174511028
 C          1.2082648383       -1.3668914060       -0.0229196489
 C          0.9953309159        0.7420929696        1.3372195194
 C          1.1938946403        0.8631875661       -1.1512830093
 H         -1.0092849254       -1.2050736469        1.7154714513
 H         -2.3669614324       -0.1047246265        1.4127896597
 H         -2.2160286741       -1.5725462762        0.4689122920
 H          2.2945935707       -1.3184544322        0.0091867065
 H          0.8711779814       -1.9653720862        0.8190988678
 H          0.9150996859       -1.8687235696       -0.9424385811
 H          2.0757403780        0.8506812048        1.4041536065
 H          0.6585058197        0.1717140927        2.1986684566
 H          0.5482534535        1.7327625540        1.3826903045
 H          2.2770376671        0.9263688619       -1.0812854105
 H          0.7815275452        1.8689027118       -1.1466974174
 H          0.9287729156        0.3969886839       -2.0967506681
