! r2scan-3c def2/J RI DEFGRID2 scfconv6 printgap
%output
    printlevel normal
end
* xyz 0 1
C 2.3144856918 0.5402688185 -0.8346174034
C 1.0619318612 -0.1388522267 -0.2767031721
H 0.633926771 -0.7843103009 -1.0591881467
C 0.0288121508 0.9078163296 0.1594978353
C -1.434396031 0.441742321 0.1874796653
C -1.9753814821 0.1763888168 -1.2170000871
C -1.6326724041 -0.7795087984 1.0807511695
O 1.3801095268 -0.9331399866 0.8566282858
H 2.7426021617 1.1990229882 -0.0826581961
H 3.0596138283 -0.2017104807 -1.1144033181
H 2.0620767162 1.1232838802 -1.715298425
H 0.3147116476 1.2331325631 1.1620666186
H 0.1012504122 1.7668679619 -0.5090734596
H -2.0125410247 1.2703708434 0.6145704716
H -1.4761615816 -0.673885869 -1.6747727764
H -1.8312353703 1.0458913948 -1.8540384853
H -3.0392417271 -0.0436981757 -1.1706657007
H -1.1175931625 -1.6437013486 0.6706222219
H -1.2321739122 -0.5925696576 2.0738181364
H -2.6906888128 -1.0164570876 1.1683120644
H 2.0881206074 -1.5484036295 0.6248213341
*
