! pbe def2-sv(p) def2/J RI DEFGRID1 loosescf d4 GCP(DFT/SV(P)) printgap
%output
    printlevel normal
end
* xyz 0 1
C 2.5180902336 0.1710170021 0.6261343646
C 1.1796192771 0.8562039189 0.3687749697
C -1.53439e-05 -0.069123559 4.79183e-05
C 0.3696734281 -0.9523548481 -1.1935752809
C -0.3702429543 -0.9518560843 1.1938577534
C -1.1791163642 0.8568310753 -0.3689216988
C -2.5179876293 0.172407881 -0.6263175934
H 2.4418847574 -0.5633412625 1.4233554722
H 3.2524135854 0.9156100693 0.9257944435
H 2.8865344283 -0.3221627891 -0.2688810016
H 0.9016245375 1.4209731108 1.2623767729
H 1.315376883 1.5772923145 -0.4415598385
H 0.7124005015 -0.3438923353 -2.0277920261
H -0.488242088 -1.5333143258 -1.520857867
H 1.157486726 -1.6503288228 -0.9243815731
H -1.1584863821 -1.6494219795 0.9248489736
H 0.4872926744 -1.5332794756 1.5212935605
H -0.71256936 -0.3430074973 2.0279558789
H -1.3144937439 1.5781568503 0.4412701459
H -0.9007221941 1.4212671953 -1.262601882
H -2.4421343492 -0.5620470534 -1.4234817838
H -2.8867148685 -0.3204884466 0.2687274993
H -3.2518971558 0.9173911249 -0.9260719345
*
