  12
  -22.1311309600000       0.113657984831477      !mtd7
 C         -2.2727531793       -0.9422017211        0.1831436068
 O         -1.0152086082       -0.6621652666       -0.4214743960
 C         -0.4574503712        0.5052442418       -0.1126592341
 O         -0.9458623451        1.3348554826        0.6002449330
 C          0.9051755763        0.6383284492       -0.7899769034
 C          1.8650874287       -0.1321980933       -0.0397406171
 N          2.6154016322       -0.7468701236        0.5630031442
 H         -2.9936049025       -0.1610090411       -0.0652647812
 H         -2.1655354269       -0.9931562198        1.2679978314
 H         -2.5920875432       -1.9014572443       -0.2147743252
 H          1.2061163876        1.6878043733       -0.7952576079
 H          0.8517475197        0.2444036029       -1.8068375711
  12
  -22.1311309100000       0.113651971375831      !md8
 C         -2.2682953258       -0.9515331805       -0.1849193228
 O         -1.0228509426       -0.6423589772        0.4304270062
 C         -0.4595229714        0.5102939549        0.0791885275
 O         -0.9342474396        1.3057566944       -0.6803083081
 C          0.8894189639        0.6761877644        0.7763018905
 C          1.8636712425       -0.1296921751        0.0839575198
 N          2.6256589387       -0.7726288193       -0.4728547114
 H         -2.1376148101       -1.0642281889       -1.2625291612
 H         -2.9905548316       -0.1549051148        0.0029762397
 H         -2.6008532368       -1.8856811334        0.2592238096
 H          0.8152357912        0.3321334525        1.8098264212
 H          1.1910386971        1.7247401797        0.7367292928
  12
  -22.1311308700000       0.113647160840477      !md2
 C         -2.2743302973       -0.9411183597        0.1826828036
 O         -1.0170009048       -0.6618369057       -0.4227321281
 C         -0.4572408129        0.5042950729       -0.1126318904
 O         -0.9437732338        1.3334651088        0.6020033770
 C          0.9048190868        0.6365139856       -0.7911761264
 C          1.8656306455       -0.1316121365       -0.0396241466
 N          2.6165242037       -0.7445604544        0.5640796552
 H         -2.5998295437       -1.8948253301       -0.2235067725
 H         -2.9917191318       -0.1537407009       -0.0560193677
 H         -2.1642760259       -1.0032444903        1.2666731391
 H          1.2052571111        1.6861216635       -0.7990970990
 H          0.8509635222        0.2400762285       -1.8070263517
  12
  -22.1311308700000       0.113647160840477      !gc
 C         -2.2669585074       -0.9526768802       -0.1828792936
 O         -1.0204656486       -0.6424909933        0.4298118041
 C         -0.4597854887        0.5114289467        0.0785368283
 O         -0.9373222215        1.3066639898       -0.6794331917
 C          0.8902206677        0.6791548082        0.7731497183
 C          1.8633467406       -0.1303143264        0.0834427096
 N          2.6246685114       -0.7759490708       -0.4711061244
 H         -2.5906635662       -1.8945579330        0.2513210361
 H         -2.1414525811       -1.0507680463       -1.2624902852
 H         -2.9937331861       -0.1636298580        0.0189914996
 H          0.8169037060        0.3396511953        1.8082558136
 H          1.1924170075        1.7273583308        0.7288770702
  12
  -22.1311307700000       0.113635135392676      !md1
 C         -2.2721299187       -0.9428864904        0.1831918908
 O         -1.0142853724       -0.6623530095       -0.4205582573
 C         -0.4575144320        0.5057091123       -0.1124112332
 O         -0.9470926374        1.3358282672        0.5990416970
 C          0.9053355249        0.6392308475       -0.7891170400
 C          1.8650521048       -0.1323767188       -0.0397645851
 N          2.6150007057       -0.7482360550        0.5622116338
 H         -2.1617660858       -1.0133554748        1.2666280038
 H         -2.6001338771       -1.8928276275       -0.2297026956
 H         -2.9876236763       -0.1519854898       -0.0493783568
 H          1.2064647565        1.6886614519       -0.7931285543
 H          0.8519917351        0.2466085000       -1.8064899467
  12
  -22.1311307700000       0.113635135392676      !md3
 C         -2.2656422623       -0.9536275941       -0.1821043948
 O         -1.0195092809       -0.6420247504        0.4304447906
 C         -0.4597242478        0.5120983656        0.0783477322
 O         -0.9380276043        1.3064871239       -0.6800345739
 C          0.8905215269        0.6809040550        0.7722150997
 C          1.8628690130       -0.1303594916        0.0834990526
 N          2.6229666375       -0.7775927165       -0.4708304407
 H         -2.9959156013       -0.1697075046        0.0272477214
 H         -2.5839110896       -1.9003210957        0.2457022068
 H         -2.1418944016       -1.0428788840       -1.2627293923
 H          0.8175244181        0.3433251725        1.8079776763
 H          1.1930271304        1.7289288884        0.7259094414
  12
  -22.1310313400000       0.102286370747543      !gc
 C         -2.2615183777       -0.9732334078       -0.1722452637
 O         -1.0118313506       -0.6383517437        0.4217032847
 C         -0.4617244517        0.5215708793        0.0758596523
 O         -0.9397222746        1.3206803680       -0.6779330146
 C          0.8911998906        0.6882385233        0.7658237883
 C          1.8588336517       -0.1336645319        0.0832166747
 N          2.6159512322       -0.7888867525       -0.4658620734
 H         -2.3416769329       -0.5200327887       -1.1615757017
 H         -3.0750430993       -0.6110030096        0.4589502529
 H         -2.2940770546       -2.0581531081       -0.2404131756
 H          0.8182025226        0.3602097072        1.8046982667
 H          1.1986365275        1.7344082137        0.7104951567
  12
  -22.1310147000000       0.100501039793250      !gc
 C         -2.2701393906       -0.9705245441        0.1773837355
 O         -1.0135737494       -0.6538805964       -0.4131260509
 C         -0.4586669703        0.5149351263       -0.1083239863
 O         -0.9401660221        1.3560778760        0.5960005084
 C          0.9035523729        0.6390587784       -0.7889110035
 C          1.8608439444       -0.1359168208       -0.0399598996
 N          2.6099690682       -0.7537742874        0.5609678761
 H         -2.9093617677       -1.3685455075       -0.6089536021
 H         -2.7133524101       -0.0757265799        0.6171818797
 H         -2.1145176291       -1.7252307696        0.9490734127
 H          1.2101132685        1.6869056237       -0.7961452205
 H          0.8461376726        0.2443807436       -1.8052665764
  12
  -22.1309935100000       9.827256808217533E-002 !gc
 C         -2.2611283927       -0.9758349668        0.1785538475
 O         -1.0004633262       -0.6574706937       -0.4018638293
 C         -0.4603725759        0.5213723627       -0.1097010486
 O         -0.9533293851        1.3637084205        0.5852260007
 C          0.9058588489        0.6508180832       -0.7813253838
 C          1.8578210935       -0.1387881174       -0.0410494218
 N          2.6020081043       -0.7685720830        0.5535510293
 H         -2.4831370654       -0.2861615541        0.9942690787
 H         -2.1989293038       -1.9982401602        0.5469019836
 H         -3.0327637726       -0.9017002766       -0.5888577329
 H          1.2153491490        1.6977863966       -0.7720149906
 H          0.8514529521        0.2722595637       -1.8040259959
  12
  -22.1287711000000       9.355852911474102E-003 !input
 C         -2.7518021007       -0.1280256606       -0.1527322960
 O         -1.4699740979       -0.4582634260       -0.6754101063
 C         -0.4188368972        0.0017690005        0.0102188995
 O         -0.4947698599        0.6564646368        1.0085498226
 C          0.8651447003       -0.4410319012       -0.6856910214
 C          2.0503159633        0.0174301046       -0.0057687502
 N          3.0018227780        0.3700785875        0.5168151887
 H         -3.4771068227       -0.5715952612       -0.8293970311
 H         -2.8755374247        0.9556218064       -0.1114066953
 H         -2.8654796346       -0.5340857054        0.8540022311
 H          0.8579076192       -0.0529281076       -1.7083510941
 H          0.8734024378       -1.5336237857       -0.7369033249
  12
  -22.1285882100000       7.709619791943533E-003 !gc
 C         -2.7694978816       -0.1384586748       -0.1824798162
 O         -1.4672894073       -0.4663637896       -0.6567728141
 C         -0.4182663540        0.0049025058        0.0229919923
 O         -0.4812122184        0.6842371947        1.0058584702
 C          0.8616439118       -0.4702246911       -0.6595495558
 C          2.0506918369        0.0162465913       -0.0061481923
 N          3.0060836045        0.3901198296        0.4941458374
 H         -3.3200003736       -1.0683826312       -0.0448056344
 H         -3.2647313699        0.4790932190       -0.9319749307
 H         -2.6971379850        0.4038808507        0.7615344025
 H          0.8504935998       -0.1289526475       -1.6986184470
 H          0.8688374270       -1.5640603329       -0.6610035728
