! pbe def2-sv(p) def2/J RI DEFGRID1 loosescf d4 GCP(DFT/SV(P)) printgap
%output
    printlevel normal
end
* xyz 0 1
C -1.4461649166 0.3535962116 -0.2959760649
C -0.0176308722 0.3477337257 0.2902560496
C 0.8273182055 -0.7926620615 -0.3023025764
O 2.1807421095 -0.730933695 0.0794742883
O 0.5990953173 1.6015651474 0.1067677821
O -2.232867617 -0.7300729327 0.1366569028
H -1.3976986561 0.3934908542 -1.3912485307
H -1.9515630774 1.2540556244 0.0626016599
H -0.0941630157 0.2243652715 1.3770290314
H 0.8345644193 -0.7231384257 -1.3941627077
H 0.3905501536 -1.756120072 -0.0088937431
H 2.2438096361 -0.7065756334 1.0441306259
H 0.8406525492 1.7092086177 -0.8241630648
H -1.964061095 -1.5380981006 -0.3203524306
*
