! pbe def2-sv(p) def2/J RI DEFGRID1 loosescf d4 GCP(DFT/SV(P)) printgap
%output
    printlevel normal
end
* xyz 0 1
C -2.3704463194 0.7168078584 0.7640458713
C -1.2402312953 -0.2711269092 0.4685636025
C -1.8315010824 -1.4496256846 -0.3081585132
C -0.0749203003 0.381417753 -0.3091509916
C 0.2610404777 1.7770904774 0.2204764964
C 1.1764984315 -0.5271794747 -0.3276351508
C 2.0949034371 -0.1814224339 -1.5005842434
C 1.9697829674 -0.4921169864 0.9782849986
H -3.2071413553 0.1911176382 1.219465493
H -2.0533262336 1.4963425676 1.4496354751
H -2.7208467887 1.1791089568 -0.1563954054
H -0.8569253028 -0.6425892687 1.4250034703
H -2.2478584861 -1.1041777499 -1.2524003004
H -2.6291306105 -1.9144035729 0.2671871472
H -1.0876112544 -2.2120084867 -0.5217373176
H -0.4059916271 0.4931887143 -1.349017759
H 0.4023442509 1.7614709723 1.2979400185
H -0.5336335442 2.4790339528 -0.0147659215
H 1.1722624023 2.1469087215 -0.2420831676
H 0.8388276176 -1.5569393383 -0.4793218321
H 1.5577797845 -0.2549447488 -2.443566518
H 2.4889081084 0.8277321286 -1.4075670423
H 2.9368923461 -0.8693909323 -1.5320405007
H 2.4505457393 0.4721297807 1.1175759395
H 2.744815192 -1.2553672008 0.957767629
H 1.3273373218 -0.6871848409 1.8330386178
*
