  24
  -51.3048927400000       0.500052909742495      !gc
 C          3.5761245368       -1.4842170399       -0.0644470725
 C          4.6802147058       -0.6068445409       -0.5899415418
 C          4.5821339399        0.7016836581       -0.7784928398
 C          3.3669293931        1.5276115964       -0.4527893456
 C          2.4664773418        0.6943443618        0.4443410862
 H          2.9551945301        0.5934988697        1.4229399133
 C          2.2779550229       -0.6994018618       -0.1521809868
 H          2.0100598151       -0.5935854607       -1.2123620199
 C          1.0311607124       -1.2037943571        0.5310583238
 O          0.6568914718       -2.3153150397        0.7436248645
 N          0.3099774217       -0.0394133683        0.8628731301
 C          1.0574464733        1.1464846735        0.7413396560
 O          0.6162790828        2.2424227776        0.9037373348
 S         -1.2921352117       -0.0702907480        1.4103373932
 C         -2.1750859284        0.0052971890       -0.1989780047
 Cl        -3.8886855512       -0.0748327760        0.2093750063
 Cl        -1.8237633678        1.5161065631       -1.0675826466
 Cl        -1.7315239196       -1.3629298893       -1.2452749857
 H          3.7856232805       -1.7713369647        0.9702326960
 H          3.5176572429       -2.4034608201       -0.6495587163
 H          5.6023809800       -1.1162403954       -0.8291879792
 H          5.4191809437        1.2499142484       -1.1858030011
 H          3.6645483948        2.4530979818        0.0428330363
 H          2.8454608995        1.8058145981       -1.3735094765
  24
  -51.3048925400000       0.499947090257505      !mtd11
 C          3.4161078211       -1.4796508979        0.1453414489
 C          4.6451402064       -0.6364507804        0.3540576817
 C          4.7077188430        0.6724028987        0.1530107367
 C          3.5479563836        1.5327831268       -0.2709440113
 C          2.2743662746        0.7314454429       -0.0592476827
 H          2.1089106307        0.6266582847        1.0217547159
 C          2.4253381918       -0.6619880611       -0.6669114310
 H          2.8203154866       -0.5585930772       -1.6867335061
 C          1.0012767737       -1.1338151293       -0.8318741973
 O          0.5618931747       -2.2359243575       -0.9519586183
 N          0.2296781115        0.0416765410       -0.8857626703
 C          0.9620681094        1.2165944955       -0.6235464490
 O          0.5537265317        2.3224129910       -0.8003634552
 S         -1.4160665560        0.0487827468       -1.2849710459
 C         -2.1483095933       -0.0344682043        0.3978367749
 Cl        -3.8930679848        0.0104691402        0.1453367119
 Cl        -1.6904651924       -1.5335393488        1.2364766713
 Cl        -1.6389907333        1.3477449296        1.3945223878
 H          2.9862042361       -1.7603625914        1.1114991834
 H          3.6785803978       -2.4034337311       -0.3727819126
 H          5.5237364955       -1.1719318372        0.6833364312
 H          5.6412133689        1.1948388168        0.3037689401
 H          3.5320610591        2.4544988721        0.3129151200
 H          3.6562461426        1.8165643076       -1.3219641348
