! pbe def2-sv(p) def2/J RI DEFGRID1 loosescf d4 GCP(DFT/SV(P)) printgap
%output
    printlevel normal
end
* xyz 0 1
C 1.8869494462 0.7905300414 -1.0333145716
C 1.4436575635 -0.2250272559 0.021060648
H 2.1965882018 -1.0230063056 0.0546819681
C 0.0817765982 -0.8829162788 -0.3051609253
C -1.1719832092 -0.1922057176 0.2498277713
C -1.477870029 1.143533174 -0.4260500956
C -2.3692214795 -1.1284274614 0.0759046484
O 1.4869295321 0.3280063555 1.3249501479
H 1.9925500025 0.2990095246 -1.9958046108
H 1.1700757612 1.5999126703 -1.1319307362
H 2.8500636003 1.2093331957 -0.7495020197
H -0.0020780508 -0.9732638107 -1.3889528703
H 0.0993407589 -1.8926019935 0.1105069629
H -1.0264398978 -0.0278083646 1.3232696704
H -1.5273775482 1.0177794737 -1.5055675508
H -0.729313556 1.8970644793 -0.1984118766
H -2.4392168333 1.5197274527 -0.0822767382
H -3.2680294523 -0.6766482704 0.4889225528
H -2.5401849033 -1.3311131838 -0.9792118068
H -2.1983687893 -2.0744239209 0.5843245411
H 0.9655860281 1.1423142229 1.3326154348
*
