! r2scan-3c def2/J RI DEFGRID2 scfconv6 printgap
%output
    printlevel normal
end
* xyz 0 1
C 2.8166239956 -0.1995794141 0.2078780144
C 1.4846191804 0.2945558178 -0.3419124464
C 0.3141738551 -0.536496289 0.1785087419
C -1.0328797955 -0.0246833951 -0.3377074378
H -0.9912475928 0.0324057858 -1.4388297605
C -2.1720154943 -0.9577241957 0.0736148959
O -1.2215995841 1.2814518117 0.1846512037
H 2.9866174354 -1.2346454054 -0.0801873789
H 2.8255990368 -0.1396519073 1.2936635206
H 3.6344902548 0.4043792552 -0.1768073226
H 1.3277305486 1.3356559556 -0.0543920668
H 1.500367466 0.2482769809 -1.4334605077
H 0.4361092001 -1.5766579166 -0.1267514983
H 0.298421022 -0.4943872234 1.2691392589
H -3.1227786437 -0.5956117029 -0.3112226922
H -1.9964141356 -1.9542468062 -0.320138304
H -2.230321737 -1.0107073887 1.1581486836
H -2.0858922795 1.6121700327 -0.0931552692
*
