  26
        -29.89895170
 C          6.4155013441       -0.4592883799       -0.2649115482
 C          5.0460071865       -0.7124893001        0.3530852993
 C          3.9725520193        0.1856116119       -0.2568184288
 C          2.5970430357       -0.0656936081        0.3556115099
 C          1.5251980909        0.8346718112       -0.2535716807
 C          0.1500040658        0.5729253453        0.3545695948
 C         -0.9228801357        1.4703266013       -0.2570340437
 C         -2.2944605311        1.2402278767        0.3485266846
 Br        -2.9794307996       -0.5447068405       -0.0662190379
 H          6.3917158790       -0.6500569913       -1.3356920372
 H          6.7196231638        0.5736235791       -0.1089606019
 H          7.1641919743       -1.1087076983        0.1826903447
 H          5.0952717028       -0.5350444988        1.4299596814
 H          4.7679371251       -1.7581931916        0.2032713667
 H          4.2500424521        1.2318364678       -0.1058095637
 H          3.9254735379        0.0093216947       -1.3341511816
 H          2.3190982165       -1.1109547051        0.2019207901
 H          2.6447520316        0.1074590293        1.4335426740
 H          1.4815082377        0.6637954502       -1.3317787295
 H          1.7992413793        1.8809920779       -0.0958594744
 H         -0.1180368679       -0.4737729053        0.1932464464
 H          0.1931578759        0.7432894750        1.4337580124
 H         -0.9663060018        1.3053249011       -1.3364145179
 H         -0.6600403947        2.5194457295       -0.0907300549
 H         -2.2701830198        1.3062655422        1.4357607252
 H         -3.0316440502        1.9379225981       -0.0469998105
