! r2scan-3c def2/J RI DEFGRID2 scfconv6 printgap
%output
    printlevel normal
end
* xyz 0 1
C -2.1004888663 -0.4083912231 -0.4609259076
C -1.2758633173 0.235324108 0.6499085339
N 0.0422304963 0.6326771948 0.1806994213
C 0.9552663921 -0.4776051737 -0.0382740735
C 2.354114866 0.0360585687 -0.3473038614
H -1.6988633706 -1.3804682267 -0.7333022994
H -3.125587394 -0.5412514899 -0.1263350011
H -2.0927294076 0.2316215369 -1.3381954065
H -1.2150146966 -0.4615435721 1.5072943864
H -1.7849283883 1.1412476093 0.9876038383
H 0.4591333304 1.2617154613 0.8605324971
H 0.9915670595 -1.1558923406 0.8360091735
H 0.5840916451 -1.0539297904 -0.8896774805
H 2.759509462 0.5774970327 0.5048894965
H 3.0150728108 -0.7948538405 -0.5772248606
H 2.3189320685 0.707756817 -1.2000058634
*
