! pbe def2-sv(p) def2/J RI DEFGRID1 loosescf d4 GCP(DFT/SV(P)) printgap
%output
    printlevel normal
end
* xyz 0 1
C -2.0716174702 -0.5500928644 0.1333513587
O -1.301473435 0.6250574543 -0.0338920714
C -0.003387715 0.4168505754 -0.5479976759
C 0.9647812226 -0.2063297415 0.4720634026
O 2.2817676726 -0.2715300045 -0.0200372021
H -2.0946623815 -1.1333519986 -0.7925998956
H -3.0753324921 -0.2128849477 0.3805654012
H -1.6856631666 -1.1730571064 0.9445482085
H -0.0404360098 -0.2111304193 -1.4491698788
H 0.3496066218 1.4140189381 -0.8252355227
H 0.6839451033 -1.2406664165 0.6824259192
H 0.9180026229 0.3677605524 1.4068238073
H 2.6135320058 0.624022125 -0.1755078235
*
