  19
        -26.29429568
 C         -3.0817660294       -0.4060744041       -0.0004356945
 C         -1.6238764810       -0.0547206365        0.0003710189
 C         -1.1977103996        1.2628672987        0.0002599103
 C          0.1534564203        1.5662429670        0.0000704798
 C          1.0989882918        0.5536209776       -0.0000616086
 C          0.6918086684       -0.7852269264        0.0000700272
 C         -0.6629704037       -1.0610726433        0.0002614283
 C          1.7263456197       -1.8667707066        0.0000078258
 O          2.4395897306        0.8178737145       -0.0002408288
 H         -3.3325808160       -0.9858287422       -0.8881388092
 H         -3.3281153116       -1.0105686802        0.8717203497
 H         -3.6974477242        0.4896363049        0.0133839110
 H         -1.9208795995        2.0654653199        0.0004914173
 H          0.4766545140        2.5997472553        0.0000894117
 H         -0.9846440767       -2.0932704198        0.0004360726
 H          1.2623652059       -2.8492224615        0.0013453553
 H          2.3642197628       -1.7725257897       -0.8776707311
 H          2.3659701336       -1.7708981252        0.8762647426
 H          2.5763537299        1.7723732167       -0.0005742735
  19
        -26.29383678
 C         -3.0789536184       -0.4087651572        0.0039195910
 C         -1.6212286048       -0.0567716620       -0.0031645734
 C         -1.1963431643        1.2624589490       -0.0021410723
 C          0.1532317006        1.5659003040       -0.0003411682
 C          1.1045420213        0.5557721133        0.0005587516
 C          0.6990223927       -0.7817305446        0.0000083515
 C         -0.6582001716       -1.0582468783       -0.0017705579
 C          1.7080250961       -1.8908357796       -0.0006809951
 O          2.4423936962        0.8405815410        0.0014786515
 H         -3.3069183599       -1.1109827029       -0.7964327382
 H         -3.3493340048       -0.8812399148        0.9481659306
 H         -3.6934831127        0.4786344487       -0.1247635720
 H         -1.9204579116        2.0642204561       -0.0030303721
 H          0.4746407999        2.6000782922       -0.0001340043
 H         -0.9735825096       -2.0924528634       -0.0025078609
 H          2.7137946576       -1.4832765196        0.0227776389
 H          1.5654968514       -2.5331196171        0.8672417053
 H          1.5960975475       -2.5033692194       -0.8944354498
 H          2.5617760304        1.7972135253        0.0026864035
  19
        -26.29160260
 C         -3.0784935306       -0.3799194037        0.0064104530
 C         -1.6149717851       -0.0536672989       -0.0051110648
 C         -1.1854595340        1.2690198990       -0.0031371180
 C          0.1591727755        1.5678642149       -0.0004290453
 C          1.1150625765        0.5548991236        0.0007656071
 C          0.7083520361       -0.7794325094       -0.0006692060
 C         -0.6558701463       -1.0514470679       -0.0034410256
 C          1.6652888026       -1.9418133080       -0.0002644359
 O          2.4210884480        0.9507890778        0.0022323294
 H         -3.6112882737        0.2228188866       -0.7268304357
 H         -3.2451686564       -1.4309511055       -0.2158161179
 H         -3.5042369060       -0.1651271716        0.9868650048
 H         -1.9114832285        2.0687352020       -0.0046206064
 H          0.5054075389        2.5894110924       -0.0001944166
 H         -0.9689261971       -2.0867118699       -0.0050952865
 H          1.4982812708       -2.5600676730       -0.8819374991
 H          2.7125755587       -1.6431283909        0.0023284974
 H          1.4946733564       -2.5622241792        0.8792043848
 H          3.0008166459        0.1806601235        0.0006819795
