! r2scan-3c def2/J RI DEFGRID2 scfconv6 printgap
%output
    printlevel normal
end
* xyz 0 1
C 2.1922800633 0.7352620561 0.1973589021
C 1.6331037928 -0.5259942854 -0.4508470185
C 0.2685048416 -0.937669736 0.1056674815
C -0.8834761157 -0.0023108149 -0.2941631917
H -0.7777109383 0.2706054841 -1.3507062321
C -2.233922157 -0.6908530581 -0.0822209675
O -0.8438566696 1.2388177669 0.3889913486
H 1.504874572 1.56638498 0.065272137
H 3.1470906855 0.999128165 -0.2513456318
H 2.3459303551 0.5788548537 1.2629366891
H 1.5438311727 -0.370193527 -1.5283502703
H 2.3346709076 -1.3487594587 -0.2927519059
H 0.0284413675 -1.9347857796 -0.2670557318
H 0.3220787299 -0.9905494489 1.1957784796
H -2.3242920831 -1.0367556869 0.9455280603
H -3.039818802 0.0090055847 -0.2898125097
H -2.3306136273 -1.5430547181 -0.7479334913
H -0.9958020092 1.0757285451 1.3304669961
*
