! r2scan-3c def2/J RI DEFGRID2 scfconv6 printgap
%output
    printlevel normal
end
%cpcm
    smd true
    smdsolvent "water"
end
* xyz 0 1
C 1.8086662277 -1.3826446108 0.0936982971
C 0.8560156355 -0.19988852 0.2634701272
C 1.6232372028 1.1110213475 0.1015939434
C -0.2920745416 -0.3095604499 -0.749061248
C -1.4882692244 0.5977162178 -0.4506821574
O -2.2863635781 0.139882109 0.622786987
H 2.222389305 -1.3912426748 -0.9121749619
H 1.2890120684 -2.3234129122 0.2594814633
H 2.6302742195 -1.3148572923 0.8026371621
H 0.4441306311 -0.2399911545 1.2783495836
H 2.0620111892 1.1685566916 -0.8921025648
H 2.4243957103 1.171742636 0.8344670056
H 0.9728166468 1.9709255603 0.2389629665
H -0.6579633145 -1.3385702924 -0.7716184468
H 0.0851241502 -0.0651093101 -1.7431624887
H -1.158113433 1.6267188601 -0.2591712167
H -2.1609327527 0.6114354021 -1.3117615968
H -1.7418352585 0.0883439101 1.4201402449
*
