! r2scan-3c def2/J RI DEFGRID2 scfconv6 printgap
%output
    printlevel normal
end
%cpcm
    smd true
    smdsolvent "water"
end
* xyz 0 1
C 2.1830234928 -0.7731839862 0.5446535472
C 1.4214151705 0.4282599066 -0.0055948382
C 0.3238539087 0.0492719013 -1.0086854288
C -1.0871037933 -0.0169431971 -0.4085412484
H -1.7784977963 -0.2862682323 -1.2268787126
C -1.2298373958 -1.0517518682 0.7059836913
O -1.4127235789 1.287242421 0.0499063607
H 2.6705266613 -1.3112561133 -0.2655865879
H 1.5225652592 -1.4616657641 1.0627991303
H 2.9485795265 -0.4419659766 1.2427296443
H 0.971607969 0.9977492986 0.8091070081
H 2.1367504718 1.0882506236 -0.5001305377
H 0.2870784298 0.802103218 -1.7982494601
H 0.5515480611 -0.9119504161 -1.47042525
H -2.2713774929 -1.1376088631 1.0094702437
H -0.892838662 -2.0222548343 0.3543682348
H -0.6411790892 -0.756387582 1.570031218
H -2.2814394286 1.266305097 0.4724471056
*
