  15
        -16.90754121
 C          2.8059538763       -0.4442033117       -0.1540042349
 C          1.4030517162       -0.2726865793        0.4130181143
 C          0.6306445926        0.8257609372       -0.3129525729
 C         -0.7821452040        0.9966680035        0.2225172561
 S         -1.8265752858       -0.4823108331       -0.0324551661
 H          3.3383028115       -1.2280106211        0.3790322265
 H          3.3724227844        0.4802479438       -0.0609328482
 H          2.7629990493       -0.7143954039       -1.2070470162
 H          1.4658436994       -0.0245523037        1.4750542931
 H          0.8558201422       -1.2133709512        0.3241477180
 H          0.5896502296        0.5969902986       -1.3815683000
 H          1.1549068921        1.7785104206       -0.1976165598
 H         -0.7756355755        1.1450807368        1.3021160090
 H         -1.2874064871        1.8400266265       -0.2491463352
 H         -1.7286037794       -0.4933913309       -1.3606087783
  15
        -16.90752181
 C          3.0807215147       -0.4342482678       -0.1675772666
 C          1.8819167524        0.2441718904        0.4835414379
 C          0.5703477657       -0.1858389846       -0.1713767958
 C         -0.6221847827        0.4998875379        0.4733800994
 S         -2.2114325905       -0.0610468461       -0.2331985059
 H          4.0040778509       -0.1182670653        0.3116993825
 H          3.1374163631       -0.1795270544       -1.2236413072
 H          3.0006025250       -1.5153993772       -0.0802216893
 H          1.9876893705        1.3285737666        0.4017539832
 H          1.8536195675       -0.0067778325        1.5461549237
 H          0.4536396144       -1.2681298993       -0.0822645766
 H          0.5995753875        0.0596140963       -1.2365908600
 H         -0.6894557364        0.2536996010        1.5329134427
 H         -0.5697540178        1.5837063638        0.3647903446
 H         -1.9559057806        0.3269702252       -1.4810796464
  15
        -16.90682204
 C          2.6691407391       -0.4325712845       -0.5490151566
 C          1.9643287602        0.3672425281        0.5405757902
 C          0.5070358747       -0.0499168502        0.7461552942
 C         -0.3700881012        0.2828233728       -0.4498636708
 S         -2.1391651787       -0.0256476684       -0.1078339021
 H          2.2293715995       -0.2402593236       -1.5242828102
 H          2.6021299981       -1.4988493107       -0.3432564921
 H          3.7207054522       -0.1593492518       -0.5941029603
 H          2.0036863908        1.4308970757        0.2956155806
 H          2.4960012195        0.2252576439        1.4840315176
 H          0.1090722132        0.4658925030        1.6232619776
 H          0.4616288035       -1.1246444628        0.9424867948
 H         -0.3164262891        1.3447218726       -0.6895149388
 H         -0.1004981165       -0.2967667468       -1.3316068428
 H         -2.0099635966       -1.3280809712        0.1371314861
  15
        -16.90682099
 C          2.6164497695       -0.8372664113        0.1024232593
 C          1.9919858398        0.5512005606        0.1735043331
 C          0.5673810839        0.6007061247       -0.3818571733
 C         -0.4206103005       -0.1661513319        0.4817982121
 S         -2.1229639096       -0.0761870466       -0.1761706341
 H          2.5863085957       -1.2161535146       -0.9168326508
 H          2.0917665792       -1.5379098616        0.7467953598
 H          3.6550434529       -0.7981726792        0.4224642947
 H          2.6068600620        1.2454667953       -0.4034425975
 H          1.9872127872        0.8968733994        1.2099999695
 H          0.5533334688        0.1900250450       -1.3937425177
 H          0.2479717356        1.6451179218       -0.4422202102
 H         -0.1950580244       -1.2310601022        0.4971875060
 H         -0.4349253377        0.2111215592        1.5049537255
 H         -2.2368812545        1.2485817335       -0.1005747256
  15
        -16.90681806
 C          2.8608661297       -0.3929523433       -0.1608258408
 C          1.4418176302       -0.2936794302        0.3844499400
 C          0.6295581317        0.7635506628       -0.3598985375
 C         -0.7614047552        0.9742547635        0.2198616860
 S         -1.8929672054       -0.4357036375       -0.0598303413
 H          3.3793214605        0.5574995738       -0.0536789976
 H          2.8454117512       -0.6575371946       -1.2157483746
 H          3.4233003569       -1.1532867273        0.3757304778
 H          1.4774426618       -0.0407352148        1.4474936662
 H          0.9545176157       -1.2663906379        0.2857146371
 H          0.5403631851        0.4814538373       -1.4111475124
 H          1.1594758675        1.7190645627       -0.3133892340
 H         -0.7245585523        1.1626677599        1.2928138195
 H         -1.2566624120        1.8122563746       -0.2703322190
 H         -1.2890338415       -1.2825070934        0.7695725204
  15
        -16.90670305
 C          2.3306287847       -0.5153846456       -0.5768775917
 C          1.4852624037       -0.1610781903        0.6405485446
 C          0.5808153032        1.0497915081        0.4106237495
 C         -0.5623393261        0.7827348382       -0.5571788915
 S         -1.7066238262       -0.5169512997        0.0293421356
 H          2.9266931225        0.3391094166       -0.8915650300
 H          1.7071568618       -0.8274353476       -1.4107748531
 H          3.0047057754       -1.3345595504       -0.3384261622
 H          2.1471742631        0.0575313332        1.4813195067
 H          0.8686991923       -1.0189468450        0.9167427289
 H          1.1740193399        1.8776397178        0.0125403357
 H          0.1630485549        1.3712824600        1.3689574348
 H         -1.1502450603        1.6852743019       -0.7272350218
 H         -0.1970535189        0.4167523469       -1.5149921258
 H         -2.0522986961        0.1002634135        1.1578166842
  15
        -16.90601865
 C          2.2933670704       -0.5152814132       -0.5737523713
 C          1.5230209567       -0.1047966719        0.6761487214
 C          0.5643218363        1.0633106863        0.4423256535
 C         -0.5579929439        0.7780715712       -0.5460022211
 S         -1.7360756103       -0.4967013240        0.0311114925
 H          3.0262206211       -1.2802265378       -0.3276864987
 H          2.8189093104        0.3393420171       -0.9947553304
 H          1.6310215575       -0.9201808175       -1.3353467042
 H          2.2355905828        0.1946164854        1.4478254638
 H          0.9676144981       -0.9615543373        1.0646324096
 H          1.1296640477        1.9194131410        0.0636045812
 H          0.1203155239        1.3512250404        1.3979458971
 H         -1.1730559603        1.6679975468       -0.6797199084
 H         -0.1794575954        0.4664500138       -1.5178921204
 H         -0.9092651455       -1.5317605638       -0.0929680994
  15
        -16.90530897
 C          3.0710774387       -0.4660486372       -0.1759894286
 C          1.8919509789        0.2957487417        0.4158091473
 C          0.5628891825       -0.2072961110       -0.1435874796
 C         -0.6126940869        0.5508103383        0.4486737343
 S         -2.1801073857       -0.0952476318       -0.2584224610
 H          4.0082688772       -0.0953733877        0.2321818680
 H          3.0964094871       -0.3491687317       -1.2570576642
 H          2.9923444879       -1.5267613220        0.0514085657
 H          1.9975078484        1.3603836752        0.1940115675
 H          1.8929133935        0.1817204177        1.5024519565
 H          0.4504536684       -1.2713466577        0.0768783835
 H          0.5535501318       -0.0910179588       -1.2297867456
 H         -0.6580317183        0.4197235162        1.5302453790
 H         -0.5539228123        1.6131351855        0.2096874780
 H         -2.9832683734        0.7242392810        0.4164981649
  15
        -16.90522311
 C          2.8063304334       -0.4518253844       -0.1725523343
 C          1.4068141383       -0.2730782202        0.4003494879
 C          0.6277085388        0.8099965405       -0.3417623066
 C         -0.7700946109        1.0087780448        0.2200909189
 S         -1.7953409547       -0.4928385339       -0.0593372814
 H          3.3430850678       -1.2269148846        0.3688382937
 H          3.3719545943        0.4747905439       -0.0974546100
 H          2.7554312270       -0.7379898826       -1.2206966891
 H          1.4761349247       -0.0064332057        1.4578940807
 H          0.8610742996       -1.2162135128        0.3292098031
 H          0.5539891553        0.5449253002       -1.3990081058
 H          1.1637791185        1.7605257031       -0.2701846111
 H         -0.7372610762        1.1884697071        1.2952006416
 H         -1.2734482317        1.8375943371       -0.2777078618
 H         -2.9179034097        0.0223006100        0.4366659474
  15
        -16.90511818
 C          1.8279848208       -0.9842872901       -0.0083269861
 C          1.7849751207        0.5043746373        0.3133285977
 C          0.5618451068        1.2250333679       -0.2562033272
 C         -0.7573932827        0.8639268514        0.4157922756
 S         -1.5150703590       -0.6948603715       -0.1700806903
 H          2.7533696985       -1.4194689239        0.3621782825
 H          1.7807461933       -1.1437572544       -1.0835270441
 H          0.9966014970       -1.5092020984        0.4525491759
 H          2.6784868379        0.9808128954       -0.0981667885
 H          1.8080058821        0.6440505467        1.3968197517
 H          0.4920388536        1.0322272195       -1.3299006900
 H          0.7070337405        2.3013551331       -0.1247042520
 H         -0.6246234570        0.7216064133        1.4878916979
 H         -1.4989897534        1.6472991704        0.2554120973
 H         -1.6250407661       -0.3270997167       -1.4449638624
  15
        -16.90460301
 C          2.6719724153       -0.3743533103       -0.5620482847
 C          1.9571967503        0.2641653808        0.6233427393
 C          0.4900217821       -0.1513098639        0.7367059224
 C         -0.3574586214        0.3744914603       -0.4100733135
 S         -2.1173023197       -0.0606663919       -0.1104130841
 H          2.5767731623       -1.4573906071       -0.5249039821
 H          3.7298796173       -0.1231199243       -0.5422524284
 H          2.2604414310       -0.0235488163       -1.5051528349
 H          2.0194800400        1.3520600634        0.5443408576
 H          2.4663072145       -0.0299474080        1.5435472794
 H          0.0811190305        0.2327304765        1.6745756840
 H          0.4172125404       -1.2408674926        0.7654367600
 H         -0.2915247931        1.4609788906       -0.4770021588
 H         -0.0695671010       -0.0743217210       -1.3595488812
 H         -2.5863455712        0.4866169272       -1.2298136687
  15
        -16.90427335
 C          2.3454889673       -0.4103830907        0.5765902109
 C          1.4638276272       -0.2715921652       -0.6587669184
 C          0.5563091889        0.9581996769       -0.6170233735
 C         -0.5374063782        0.8752774064        0.4356364241
 S         -1.6892189854       -0.5092934720        0.0594275784
 H          1.7500813042       -0.5872754548        1.4686497619
 H          2.9361879835        0.4911973461        0.7280106715
 H          3.0259986511       -1.2500440432        0.4575809665
 H          0.8467285802       -1.1654311309       -0.7704111824
 H          2.1009584148       -0.1970161661       -1.5426706569
 H          0.0864658575        1.0859533627       -1.5951653124
 H          1.1576310896        1.8487356940       -0.4138154407
 H         -0.1246677424        0.7007028927        1.4282489991
 H         -1.1287633172        1.7909900586        0.4422106340
 H         -2.5390845620       -0.2401260210        1.0478972494
  15
        -16.90415658
 C          1.9558355710       -0.9518742204        0.1070364825
 C          1.8698523110        0.5692286341        0.1554934459
 C          0.5411452118        1.1313848527       -0.3526954491
 C         -0.6628555021        0.7479464190        0.5068101433
 S         -1.6763401592       -0.6049369772       -0.1934436621
 H          2.9567242600       -1.2791599899        0.3794771313
 H          1.7400938037       -1.3156180861       -0.8957374328
 H          1.2565990472       -1.4075279066        0.8050548266
 H          2.6703211783        0.9873823840       -0.4590294293
 H          2.0324740921        0.9083335745        1.1815816023
 H          0.3721234418        0.8006862693       -1.3797750309
 H          0.6198951892        2.2210387316       -0.3712287684
 H         -0.3639985371        0.4581603231        1.5138767229
 H         -1.3694560986        1.5741368494        0.5797108322
 H         -0.7323270748       -1.5409555931       -0.1658311943
  15
        -16.90400683
 C          2.0297706480       -0.8869450664       -0.2617563485
 C          1.6017980421        0.3307478035        0.5516348727
 C          0.5831517236        1.2107129705       -0.1865764384
 C         -0.8613306599        0.9798118363        0.2360041727
 S         -1.5153580250       -0.6789735075       -0.1707660941
 H          2.5545090635       -0.5718362257       -1.1611255729
 H          1.1719898213       -1.4827949661       -0.5619312857
 H          2.6997370627       -1.5156727830        0.3208876275
 H          2.4902574503        0.9232754309        0.7789680398
 H          1.1802402935        0.0071832417        1.5070469866
 H          0.6718305459        1.0464414043       -1.2619122890
 H          0.8003808227        2.2646885615        0.0058450609
 H         -0.9897782125        1.1273952815        1.3084320346
 H         -1.5227490996        1.6645192120       -0.2953252747
 H         -0.8166975885       -1.3419743115        0.7474999346
  15
        -16.90332512
 C          2.1624254498       -0.9338569376        0.1358084880
 C          1.9418671092        0.5738230683        0.1636273042
 C          0.5669706473        0.9688811309       -0.3780242319
 C         -0.5750005149        0.5859586997        0.5666370612
 S         -1.8121557811       -0.5235856465       -0.1975362813
 H          1.4060549313       -1.4522958940        0.7198694403
 H          3.1387025278       -1.1828911698        0.5450651260
 H          2.1128270634       -1.3042649436       -0.8858156306
 H          2.7083381889        1.0569007057       -0.4465331300
 H          2.0496995854        0.9467241378        1.1850147059
 H          0.4238388477        0.4809035331       -1.3446156928
 H          0.5440888660        2.0475058111       -0.5484418061
 H         -0.2089233230        0.0223914507        1.4234787610
 H         -1.1112326204        1.4593183332        0.9357227676
 H         -2.2356302469        0.3419610649       -1.1163755722
  15
        -16.90294270
 C          1.8093509963       -0.9845092451        0.0267453374
 C          1.8037559945        0.5254258564        0.2279084584
 C          0.5482516365        1.2111722682       -0.3122397093
 C         -0.7294966378        0.8618685421        0.4405554456
 S         -1.4906444670       -0.6876080151       -0.1960243840
 H          1.0185517328       -1.4597500019        0.5998902123
 H          2.7607189478       -1.4026021721        0.3480949428
 H          1.6618905405       -1.2288417412       -1.0228736338
 H          2.6685385951        0.9547368467       -0.2837786674
 H          1.9054299727        0.7527010566        1.2923194353
 H          0.4201527914        0.9618444672       -1.3681040399
 H          0.6904585170        2.2931698017       -0.2424033942
 H         -0.5346040693        0.7267043941        1.5047865142
 H         -1.4757421235        1.6441927041        0.3026180569
 H         -2.5969235717       -0.6035301209        0.5409405041
