  15
        -16.90754121
 C          2.8059538763       -0.4442033117       -0.1540042349
 C          1.4030517162       -0.2726865793        0.4130181143
 C          0.6306445926        0.8257609372       -0.3129525729
 C         -0.7821452040        0.9966680035        0.2225172561
 S         -1.8265752858       -0.4823108331       -0.0324551661
 H          3.3383028115       -1.2280106211        0.3790322265
 H          3.3724227844        0.4802479438       -0.0609328482
 H          2.7629990493       -0.7143954039       -1.2070470162
 H          1.4658436994       -0.0245523037        1.4750542931
 H          0.8558201422       -1.2133709512        0.3241477180
 H          0.5896502296        0.5969902986       -1.3815683000
 H          1.1549068921        1.7785104206       -0.1976165598
 H         -0.7756355755        1.1450807368        1.3021160090
 H         -1.2874064871        1.8400266265       -0.2491463352
 H         -1.7286037794       -0.4933913309       -1.3606087783
