! r2scan-3c def2/J RI DEFGRID2 scfconv6 printgap
%output
    printlevel normal
end
* xyz 0 1
C -2.8982606886 0.2785408375 0.9060041704
C -2.3578148991 0.2103483165 -0.5179164102
C -1.1547678496 -0.7235712591 -0.6650388222
C 0.0871082634 -0.2797892741 0.103389063
C 1.2747916046 -1.2250583078 -0.0940795857
C 2.4826793253 -0.4197554576 0.3918673705
C 2.1107463245 1.0599991879 0.1720863032
C 0.6675816723 1.0618712752 -0.3498472212
H -3.1314400952 -0.7189425447 1.2721056062
H -2.1741083033 0.7318013567 1.5776078952
H -3.8063370361 0.8761680085 0.9353416558
H -3.1508741203 -0.1498650752 -1.1777258245
H -2.0837048071 1.2124605908 -0.8518456332
H -1.4384755662 -1.7224761353 -0.3235688552
H -0.9003960186 -0.7982847481 -1.7258109917
H -0.1420902062 -0.228699757 1.171576799
H 1.1574609058 -2.1627517215 0.4473745459
H 1.3773314576 -1.4551169381 -1.1563322835
H 2.6554159897 -0.610380434 1.4514587096
H 3.388987149 -0.6948892885 -0.1457278367
H 2.1740236524 1.6082287617 1.1122310483
H 2.7841476122 1.542461048 -0.5351777413
H 0.1027625261 1.9128307489 0.027157019
H 0.6601634809 1.1033215309 -1.4406936079
*
