! pbe def2-sv(p) def2/J RI DEFGRID1 loosescf d4 GCP(DFT/SV(P)) printgap
%output
    printlevel normal
end
* xyz 0 1
C -2.2526882385 1.091862493 0.2688833639
C -1.8277509914 -0.3604777809 0.0866974743
C -0.558841021 -0.5664759627 -0.7472369773
C 0.7807777267 -0.1491519559 -0.0871336654
C 1.0872901839 1.3360425496 -0.2971181399
C 1.9138920471 -0.975102259 -0.7143657877
O 0.7543151024 -0.3605317361 1.3204847131
H -3.2580302231 1.1335176117 0.6827039554
H -2.2506028505 1.6178704646 -0.6830834648
H -1.5878827894 1.6048924592 0.9579952157
H -1.6920894986 -0.8119596254 1.0709036838
H -2.6351244483 -0.8987584016 -0.4162717584
H -0.4989895109 -1.6327583594 -0.9814779149
H -0.6559171543 -0.0292439589 -1.6914560236
H 1.1332295349 1.562860249 -1.3576753606
H 2.0451606322 1.5721970468 0.1600445221
H 0.3296180127 1.9553160372 0.1683986285
H 1.7543776598 -2.0387901555 -0.5471650915
H 2.866462318 -0.6934679788 -0.2715306701
H 1.9577642884 -0.7963074048 -1.784719376
H 0.7345927291 -1.3113340716 1.4913440488
*
