  16
        -17.87550883
 C         -2.6367962578       -0.5818583197       -0.1423343061
 C         -1.2535952889       -0.2876547218        0.4242916739
 C         -0.5400921177        0.8069144360       -0.3648513835
 C          0.8639637633        1.0871187280        0.1828107446
 C          1.7375572993       -0.0580721922        0.0258613046
 C          2.4461044054       -1.0110845961       -0.1203474321
 H         -2.5623908054       -0.9165553712       -1.1748292822
 H         -3.2589776520        0.3106936075       -0.1165103169
 H         -3.1297603343       -1.3601309619        0.4354959249
 H         -1.3476003543        0.0219563309        1.4683678824
 H         -0.6466628018       -1.1954459403        0.4008470753
 H         -0.4630202283        0.5058601593       -1.4122922193
 H         -1.1266201789        1.7281346568       -0.3220144528
 H          0.8020483875        1.3425163248        1.2451275768
 H          1.3044993808        1.9372002754       -0.3470195514
 H          3.0740940682       -1.8423003253       -0.2418883353
