  16
  -17.8755088300000       6.934999503009449E-002 !hor
 C         -2.6367962578       -0.5818583197       -0.1423343061
 C         -1.2535952889       -0.2876547218        0.4242916739
 C         -0.5400921177        0.8069144360       -0.3648513835
 C          0.8639637633        1.0871187280        0.1828107446
 C          1.7375572993       -0.0580721922        0.0258613046
 C          2.4461044054       -1.0110845961       -0.1203474321
 H         -2.5623908054       -0.9165553712       -1.1748292822
 H         -3.2589776520        0.3106936075       -0.1165103169
 H         -3.1297603343       -1.3601309619        0.4354959249
 H         -1.3476003543        0.0219563309        1.4683678824
 H         -0.6466628018       -1.1954459403        0.4008470753
 H         -0.4630202283        0.5058601593       -1.4122922193
 H         -1.1266201789        1.7281346568       -0.3220144528
 H          0.8020483875        1.3425163248        1.2451275768
 H          1.3044993808        1.9372002754       -0.3470195514
 H          3.0740940682       -1.8423003253       -0.2418883353
  16
  -17.8755088200000       6.934926117584661E-002 !mtd9
 C         -2.6351451196       -0.5808650457        0.1635912012
 C         -1.2552940504       -0.2921119743       -0.4138713196
 C         -0.5380383967        0.8113392580        0.3593550214
 C          0.8629489461        1.0856579107       -0.1990649976
 C          1.7368623986       -0.0583489962       -0.0353648417
 C          2.4455393191       -1.0103266629        0.1168122687
 H         -2.5548149744       -0.9030841935        1.1996416095
 H         -3.1302033521       -1.3665703665       -0.4022616453
 H         -3.2585119194        0.3106648877        0.1303506493
 H         -0.6476959591       -1.1992833733       -0.3838939420
 H         -1.3552835769        0.0060256573       -1.4607388512
 H         -1.1250090897        1.7319156534        0.3095071162
 H         -0.4552343391        0.5218787047        1.4096300681
 H          1.3066230150        1.9409190447        0.3196758258
 H          0.7951978297        1.3302837692       -1.2635708226
 H          3.0737439842       -1.8405964612        0.2434617382
  16
  -17.8755087900000       6.934705965995673E-002 !mtd4
 C         -2.6363783882       -0.5821555999       -0.1421488411
 C         -1.2529638087       -0.2878693368        0.4238535895
 C         -0.5401747621        0.8075300192       -0.3647442391
 C          0.8640033421        1.0874275588        0.1828096418
 C          1.7369721075       -0.0581978680        0.0255972791
 C          2.4454989721       -1.0113163578       -0.1200406195
 H         -3.2589877174        0.3100551729       -0.1151795859
 H         -3.1284508269       -1.3611794176        0.4354230884
 H         -2.5623156328       -0.9160297105       -1.1749265440
 H         -1.3464815763        0.0209094772        1.4682082202
 H         -0.6457573761       -1.1954633112        0.3993822009
 H         -0.4633677753        0.5072480697       -1.4124303964
 H         -1.1268236947        1.7286278089       -0.3210559048
 H          0.8023079142        1.3426349159        1.2451937098
 H          1.3047144403        1.9374339087       -0.3469434523
 H          3.0729684904       -1.8429645543       -0.2411501767
  16
  -17.8755087800000       6.934632583677061E-002 !mtd9
 C         -2.6352457986       -0.5810742969        0.1638179542
 C         -1.2559861036       -0.2913317158       -0.4145250329
 C         -0.5377558503        0.8106545895        0.3598605152
 C          0.8629295962        1.0855617612       -0.1990196643
 C          1.7373775201       -0.0580515082       -0.0354661979
 C          2.4456461290       -1.0103440898        0.1167291108
 H         -3.1306176961       -1.3664278631       -0.4022158529
 H         -3.2589048231        0.3102178469        0.1319981785
 H         -2.5539249460       -0.9041752253        1.1994631134
 H         -0.6484286652       -1.1985898791       -0.3868346107
 H         -1.3570452906        0.0087112267       -1.4607348688
 H         -1.1245891292        1.7314283136        0.3120375330
 H         -0.4541082147        0.5194437705        1.4095797700
 H          1.3065274064        1.9410209827        0.3194649881
 H          0.7946261867        1.3300975832       -1.2634950577
 H          3.0741757256       -1.8404105961        0.2432612784
  16
  -17.8755087600000       6.934485821369403E-002 !md4
 C         -2.6365920756       -0.5817831449       -0.1418496151
 C         -1.2526758746       -0.2884969609        0.4234814002
 C         -0.5400866653        0.8072253766       -0.3648573632
 C          0.8639708042        1.0876296191        0.1827025155
 C          1.7374503136       -0.0577031635        0.0261508595
 C          2.4449290433       -1.0114714050       -0.1202052643
 H         -3.1284385139       -1.3614566241        0.4350988506
 H         -2.5634172231       -0.9143382423       -1.1751897582
 H         -3.2590342236        0.3105604305       -0.1132540501
 H         -1.3453118882        0.0195161163        1.4681284527
 H         -0.6457208346       -1.1961983205        0.3978340122
 H         -0.4631527722        0.5071963061       -1.4126016941
 H         -1.1270862559        1.7280817056       -0.3209634413
 H          0.8021332946        1.3434808294        1.2449017143
 H          1.3044908072        1.9374682627       -0.3474352087
 H          3.0728900261       -1.8428224786       -0.2411384244
  16
  -17.8755086700000       6.933825429473241E-002 !gc
 C         -2.6348971980       -0.5812799551        0.1631826292
 C         -1.2549112449       -0.2919245902       -0.4136249404
 C         -0.5375921251        0.8112176535        0.3599803978
 C          0.8629267546        1.0860739271       -0.1994084842
 C          1.7369101990       -0.0578173641       -0.0353482597
 C          2.4443549477       -1.0106982349        0.1167932202
 H         -3.2582711002        0.3102284413        0.1309420207
 H         -2.5549658535       -0.9049151805        1.1987888432
 H         -3.1297869272       -1.3662463769       -0.4038829435
 H         -0.6471465979       -1.1989863687       -0.3838044787
 H         -1.3545095284        0.0066468730       -1.4603947345
 H         -1.1248620909        1.7316467249        0.3114744975
 H         -0.4536257899        0.5209132912        1.4099222670
 H          1.3068067512        1.9418406132        0.3182710319
 H          0.7942143275        1.3297983305       -1.2640490802
 H          3.0719327960       -1.8414775150        0.2431373054
  16
  -17.8753948300000       6.146893118421973E-002 !mtd8
 C         -2.9467167723       -0.3630318372       -0.1384442565
 C         -1.7444881992        0.4989523675        0.2263197871
 C         -0.4279921154       -0.2069038596       -0.0872693307
 C          0.7799923464        0.6606934451        0.2811397148
 C          2.0250485688       -0.0155069942       -0.0191949890
 C          3.0396521048       -0.5952797906       -0.2761617466
 H         -2.9388549839       -0.5988858557       -1.2004843652
 H         -3.8744448107        0.1561425732        0.0910757487
 H         -2.9292427120       -1.2974012171        0.4185807273
 H         -1.7921518473        1.4399136462       -0.3277336478
 H         -1.7816963024        0.7399677367        1.2917702090
 H         -0.3762082892       -1.1476916907        0.4659042179
 H         -0.3859742892       -0.4469926550       -1.1523322051
 H          0.7535846800        0.8978915368        1.3492031973
 H          0.7437934233        1.6017960551       -0.2762924543
 H          3.9355639633       -1.0935724822       -0.4974932233
  16
  -17.8753948100000       6.146763027576048E-002 !hor
 C         -2.9471224698       -0.3623249826       -0.1386517770
 C         -1.7443575564        0.4987165129        0.2265338215
 C         -0.4280793708       -0.2075498879       -0.0870942984
 C          0.7798752097        0.6602920443        0.2808826247
 C          2.0252151956       -0.0154897717       -0.0191425562
 C          3.0400488665       -0.5948235345       -0.2761513455
 H         -3.8744790110        0.1570934412        0.0918600193
 H         -2.9298722591       -1.2973128346        0.4173395617
 H         -2.9398757098       -0.5969920021       -1.2009630360
 H         -1.7914577841        1.4399236432       -0.3271555369
 H         -1.7815520223        0.7393475026        1.2920739352
 H         -0.3762991380       -1.1481457119        0.4664036812
 H         -0.3862550243       -0.4480086262       -1.1520782312
 H          0.7534300514        0.8978807510        1.3488626924
 H          0.7434003795        1.6012053362       -0.2768672220
 H          3.9363290304       -1.0925970062       -0.4971261969
  16
  -17.8753946800000       6.145917504253500E-002 !mtd3
 C         -2.9467274227       -0.3626027498       -0.1395411337
 C         -1.7444126835        0.4988442197        0.2263772151
 C         -0.4279032348       -0.2082059599       -0.0843511773
 C          0.7799635481        0.6615854411        0.2793072979
 C          2.0251568627       -0.0150016340       -0.0195450231
 C          3.0394262432       -0.5957348556       -0.2757598407
 H         -2.9300578058       -1.2973007391        0.4168909034
 H         -2.9382941093       -0.5977674931       -1.2016862370
 H         -3.8743130993        0.1568570691        0.0896227627
 H         -1.7904381896        1.4393264062       -0.3286725696
 H         -1.7831041931        0.7408996623        1.2915304536
 H         -0.3756562631       -1.1463471796        0.4732316839
 H         -0.3863213263       -0.4533023009       -1.1482839759
 H          0.7545110972        0.9032625479        1.3463883220
 H          0.7425404412        1.6003496804       -0.2820147978
 H          3.9354143363       -1.0943468034       -0.4959780898
  16
  -17.8746649900000       2.839516658622150E-002 !mtd14
 C         -2.1446045628       -0.5375476172        0.6581050143
 C         -1.3341327246       -0.3143101982       -0.6137164815
 C         -0.5119950890        0.9741621218       -0.5852740159
 C          0.6284345651        0.9430690844        0.4397924463
 C          1.5725429099       -0.1194082429        0.1603443520
 C          2.3415597472       -1.0021742880       -0.0868021804
 H         -2.7803958457        0.3219427965        0.8629515362
 H         -1.4942940072       -0.7000693066        1.5139757208
 H         -2.7795214674       -1.4139476029        0.5499222671
 H         -0.6619549432       -1.1606466601       -0.7706079958
 H         -2.0179619032       -0.2687354729       -1.4648771984
 H         -0.0847539272        1.1408116004       -1.5771843897
 H         -1.1670247260        1.8183208646       -0.3554045119
 H          0.2267938229        0.8056382071        1.4469812437
 H          1.1611248172        1.8988878567        0.4181831478
 H          3.0222088334       -1.7723660083       -0.2956201048
  16
  -17.8746649900000       2.839516658622150E-002 !gc
 C         -2.1634714036       -0.5836949652       -0.5556578830
 C         -1.3168381251       -0.2647225018        0.6714050517
 C         -0.4968098563        1.0165483875        0.5204357175
 C          0.6153884204        0.9041054848       -0.5296428981
 C          1.5687408995       -0.1331182866       -0.1926362434
 C          2.3458221691       -0.9935762671        0.1031814914
 H         -1.5380369713       -0.8112222164       -1.4152483000
 H         -2.8063463792        0.2580728866       -0.8067551310
 H         -2.7935390824       -1.4489591370       -0.3626997429
 H         -1.9759393697       -0.1529779090        1.5358504745
 H         -0.6397800310       -1.0974891944        0.8734350477
 H         -1.1585185361        1.8411031526        0.2433976489
 H         -0.0428588382        1.2593873262        1.4843585053
 H          1.1466611015        1.8584840610       -0.5983387882
 H          0.1868336719        0.6873666733       -1.5114708313
 H          3.0335033994       -1.7447956852        0.3538688034
  16
  -17.8746649800000       2.839486611159840E-002 !hor
 C         -2.1627495882       -0.5843655662       -0.5557764487
 C         -1.3172381031       -0.2640333590        0.6717099358
 C         -0.4969978193        1.0170450629        0.5202684541
 C          0.6153830306        0.9040210302       -0.5295355679
 C          1.5685781862       -0.1333304557       -0.1924494204
 C          2.3457751576       -0.9938229618        0.1029214978
 H         -2.8051136728        0.2572774536       -0.8085937122
 H         -2.7932761139       -1.4492090047       -0.3624029307
 H         -1.5364775454       -0.8131508113       -1.4144192845
 H         -1.9771473470       -0.1513003087        1.5354107968
 H         -0.6404412611       -1.0966295271        0.8752884316
 H         -1.1585928158        1.8414701422        0.2425612041
 H         -0.0433183614        1.2604349046        1.4841880967
 H          1.1469064248        1.8582637658       -0.5982629049
 H          0.1869601482        0.6872577459       -1.5114260379
 H          3.0334476369       -1.7451095231        0.3534198767
  16
  -17.8746649600000       2.839426517199769E-002 !mtd14
 C         -2.1475376016       -0.5353238985        0.6577230502
 C         -1.3338634894       -0.3159258673       -0.6126920303
 C         -0.5116085918        0.9725070661       -0.5859134338
 C          0.6284141650        0.9426373088        0.4396452780
 C          1.5735078189       -0.1190852723        0.1607218901
 C          2.3433687751       -1.0010329326       -0.0869640584
 H         -2.7813322946       -1.4126741955        0.5511104933
 H         -2.7846692211        0.3242518473        0.8577726947
 H         -1.4994238170       -0.6940590463        1.5159119811
 H         -0.6614918428       -1.1628074287       -0.7656295209
 H         -2.0156989184       -0.2726984873       -1.4655188874
 H         -0.0838627913        1.1375771337       -1.5778791874
 H         -1.1666302167        1.8171158043       -0.3576222171
 H          0.2265300733        0.8049704149        1.4466830695
 H          1.1602919778        1.8988937258        0.4181376835
 H          3.0248325365       -1.7705612284       -0.2954991753
  16
  -17.8746648900000       2.839216198328150E-002 !mtd12
 C         -2.1623045847       -0.5847102938       -0.5557203627
 C         -1.3170614658       -0.2638796166        0.6717805384
 C         -0.4973392682        1.0174388667        0.5198554875
 C          0.6155038574        0.9041149466       -0.5294440324
 C          1.5682992312       -0.1333923135       -0.1919135683
 C          2.3455816989       -0.9941198535        0.1025855063
 H         -2.7921338469       -1.4500725702       -0.3624193417
 H         -1.5359548046       -0.8127353887       -1.4145619729
 H         -2.8055170619        0.2564493593       -0.8082989711
 H         -1.9770182171       -0.1510450125        1.5354835942
 H         -0.6400493444       -1.0962728624        0.8756425370
 H         -1.1591275139        1.8414304733        0.2413212083
 H         -0.0442071618        1.2616447627        1.4838041516
 H          1.1471928110        1.8582945170       -0.5977617632
 H          0.1875639971        0.6876022657       -1.5116076247
 H          3.0330490399       -1.7452516900        0.3541007267
  16
  -17.8746648200000       2.839005895045712E-002 !mtd8
 C         -2.1458915649       -0.5364289883        0.6578176059
 C         -1.3333687537       -0.3156330644       -0.6130644245
 C         -0.5117760463        0.9732864600       -0.5856150182
 C          0.6285581909        0.9434727373        0.4396073085
 C          1.5729662336       -0.1189399335        0.1609063373
 C          2.3415055363       -1.0019582006       -0.0869868028
 H         -1.4971324932       -0.6984692558        1.5150046127
 H         -2.7814099455       -1.4123538720        0.5497999719
 H         -2.7812927847        0.3238562816        0.8605247089
 H         -0.6605193342       -1.1620582403       -0.7672294858
 H         -2.0157725180       -0.2718413883       -1.4655605629
 H         -0.0843960057        1.1390801458       -1.5776075898
 H         -1.1671537972        1.8174256314       -0.3566553552
 H          0.2269880037        0.8069158748        1.4469414391
 H          1.1608873741        1.8994715838        0.4170279818
 H          3.0217728459       -1.7722876149       -0.2964985133
  16
  -17.8745483800000       2.509887036113542E-002 !hor
 C         -2.5650152981       -0.1526252591       -0.5986931364
 C         -1.8085008013        0.3909300117        0.6082895323
 C         -0.3769256319       -0.1350189281        0.7092707081
 C          0.5224819085        0.3681054227       -0.4252947707
 C          1.8911532287       -0.0660916599       -0.2353362530
 C          3.0147986051       -0.4366776153       -0.0573589342
 H         -3.6010433922        0.1779776893       -0.5737826858
 H         -2.5532352245       -1.2407067177       -0.5965366488
 H         -2.1245339600        0.1952393758       -1.5298030291
 H         -1.7912632539        1.4828952606        0.5649975077
 H         -2.3446311555        0.1067038540        1.5170466243
 H          0.0530346226        0.1840436649        1.6620446627
 H         -0.3873184654       -1.2274974857        0.7013308879
 H          0.4989772468        1.4618785307       -0.4571526339
 H          0.1672770575       -0.0109439867       -1.3869089979
 H          4.0032027975       -0.7556627174        0.0883114891
  16
  -17.8745483700000       2.509860476756725E-002 !gc
 C         -2.5602045176       -0.5386948245        0.3461860211
 C         -1.8126354624        0.6979471308       -0.1400209394
 C         -0.3847772721        0.3988514481       -0.5960880752
 C          0.5282826770       -0.0362343939        0.5555989201
 C          1.8934000750       -0.2041432589        0.1015124877
 C          3.0138635417       -0.3365589757       -0.2968728012
 H         -2.5539796404       -1.3122788950       -0.4190501928
 H         -3.5947422929       -0.2890244461        0.5713223341
 H         -2.1088957652       -0.9428757147        1.2489179927
 H         -2.3590589378        1.1315391153       -0.9811370506
 H         -1.7894106125        1.4454734693        0.6569870271
 H         -0.4006227254       -0.3848454268       -1.3571778904
 H          0.0374986621        1.2962891846       -1.0551655646
 H          0.1821203804       -0.9836116553        0.9765840430
 H          0.5087698695        0.7192271228        1.3473335608
 H          3.9995377327       -0.4554640903       -0.6348696709
  16
  -17.8745483200000       2.509727684197748E-002 !md8
 C         -2.5651307364       -0.1474585284       -0.5998025278
 C         -1.8081865904        0.3874701943        0.6107505073
 C         -0.3767947861       -0.1396253984        0.7079940506
 C          0.5220446410        0.3681761228       -0.4249614139
 C          1.8910574980       -0.0653125679       -0.2358473370
 C          3.0149984924       -0.4347216590       -0.0573353287
 H         -2.5523485928       -1.2355034184       -0.6060689600
 H         -2.1257173386        0.2080394902       -1.5285173230
 H         -3.6014635756        0.1819201164       -0.5715469921
 H         -1.7906731318        1.4797024739        0.5749890185
 H         -2.3442065629        0.0971289204        1.5176462049
 H          0.0541289250        0.1748735767        1.6618555182
 H         -0.3876603142       -1.2320565599        0.6950728994
 H          0.4974217934        1.4620152760       -0.4533151206
 H          0.1673545957       -0.0081515037       -1.3878204533
 H          4.0036720938       -0.7529229998        0.0881961458
  16
  -17.8745483000000       2.509674569147072E-002 !gc
 C         -2.5605762838       -0.5387636286        0.3455594877
 C         -1.8125900456        0.6981773604       -0.1392322591
 C         -0.3849185544        0.3990312284       -0.5958455524
 C          0.5283959800       -0.0367644122        0.5553725104
 C          1.8934934923       -0.2042241769        0.1010975290
 C          3.0141761573       -0.3362745996       -0.2966726091
 H         -3.5944837240       -0.2885319517        0.5729411945
 H         -2.1081800626       -0.9453564094        1.2466670152
 H         -2.5563924600       -1.3107026228       -0.4213464926
 H         -2.3589654044        1.1330520284       -0.9797199207
 H         -1.7889263123        1.4447065328        0.6586964708
 H         -0.4010988906       -0.3843090356       -1.3572780826
 H          0.0373901731        1.2965943988       -1.0546292373
 H          0.1824628669       -0.9844728758        0.9757593102
 H          0.5088652400        0.7181191494        1.3476330160
 H          3.9999290928       -0.4548450800       -0.6345436402
  16
  -17.8745482600000       2.509568342408591E-002 !mtd5
 C         -2.5649977490       -0.1492125077       -0.5995205933
 C         -1.8083472032        0.3881096536        0.6101262123
 C         -0.3766353745       -0.1379756565        0.7083324817
 C          0.5222118933        0.3686468772       -0.4251432924
 C          1.8912304904       -0.0646121805       -0.2355117727
 C          3.0145109525       -0.4362658230       -0.0574712286
 H         -2.1242604296        0.2029420800       -1.5288484969
 H         -3.6008563013        0.1817210489       -0.5731597154
 H         -2.5537428440       -1.2372648281       -0.6026694078
 H         -1.7914396674        1.4802950330        0.5726231668
 H         -2.3442132294        0.0989112477        1.5174801493
 H          0.0539108798        0.1781316082        1.6618385335
 H         -0.3869134349       -1.2304219149        0.6969754915
 H          0.4975186637        1.4624526740       -0.4546742814
 H          0.1676710338       -0.0087451228       -1.3876436694
 H          4.0030180386       -0.7549093655        0.0884040411
  16
  -17.8745482500000       2.509541786424158E-002 !mtd1
 C         -2.5586619313       -0.5401511036        0.3475147499
 C         -1.8135198588        0.6966254878       -0.1419943051
 C         -0.3847947433        0.3991582562       -0.5965057169
 C          0.5289118206       -0.0302309039        0.5567533891
 C          1.8930955401       -0.2035365437        0.1018506903
 C          3.0126466014       -0.3407725065       -0.2973299383
 H         -2.1066202175       -0.9411199488        1.2513142865
 H         -2.5509031785       -1.3157930094       -0.4157108638
 H         -3.5936297739       -0.2919634922        0.5720201581
 H         -2.3604127230        1.1263692901       -0.9847277444
 H         -1.7922894314        1.4466517159        0.6526578161
 H         -0.3986850673       -0.3869962462       -1.3550399288
 H          0.0357254485        1.2959566739       -1.0583486095
 H          0.1816823206       -0.9743800230        0.9841172980
 H          0.5117112287        0.7301813012        1.3438462836
 H          3.9976364975       -0.4635905122       -0.6360654011
  16
  -17.8739234500000       1.295556126536761E-002 !hor
 C         -1.5406204605       -1.1542434920        0.0662995382
 C         -1.7246519011        0.3539685771        0.1752468902
 C         -0.5639226535        1.1532881937       -0.4168209512
 C          0.7505970538        1.0062322249        0.3635122159
 C          1.4684492307       -0.2102284015        0.0417042307
 C          2.0851770817       -1.1946345101       -0.2459813540
 H         -1.3969479940       -1.4450124682       -0.9720183258
 H         -2.4187842105       -1.6693480507        0.4500387230
 H         -0.6729659315       -1.4811471298        0.6325729693
 H         -2.6402378128        0.6385816654       -0.3501541409
 H         -1.8515212090        0.6288172919        1.2258137144
 H         -0.4028259708        0.8492478485       -1.4535197993
 H         -0.8417984893        2.2105788507       -0.4183374847
 H          0.5467105672        1.0293513411        1.4383085422
 H          1.4056213552        1.8510019533        0.1271715746
 H          2.6119048455       -2.0684551841       -0.4887361788
  16
  -17.8739234200000       1.295514998666753E-002 !mtd1
 C         -1.5410256061       -1.1544277625        0.0651991195
 C         -1.7241952064        0.3537129786        0.1765629493
 C         -0.5641749107        1.1534460436       -0.4163414963
 C          0.7509560959        1.0065917820        0.3629905902
 C          1.4687460646       -0.2099906158        0.0414909557
 C          2.0847817421       -1.1949496101       -0.2458581762
 H         -0.6725530692       -1.4824582025        0.6295524667
 H         -1.3992227470       -1.4437846490       -0.9737680992
 H         -2.4187610843       -1.6697316288        0.4496640491
 H         -2.6405133968        0.6393998870       -0.3469510642
 H         -1.8492724593        0.6271498648        1.2277099727
 H         -0.4038691510        0.8496476186       -1.4532338335
 H         -0.8422593184        2.2106888073       -0.4174130630
 H          0.5479755570        1.0303632956        1.4379606505
 H          1.4057727374        1.8512412704        0.1255973984
 H          2.6111451149       -2.0689028106       -0.4889724210
  16
  -17.8739233900000       1.295473872102363E-002 !mtd7
 C         -1.5462646535       -1.1428819532       -0.1244082042
 C         -1.7303571558        0.3672987125       -0.0476653138
 C         -0.5391708222        1.0948980127        0.5755658185
 C          0.7344673769        1.0434199361       -0.2810356594
 C          1.4645255152       -0.1996361820       -0.1378877416
 C          2.0920985019       -1.2088701983        0.0027455611
 H         -2.4432274089       -1.6117087499       -0.5237048128
 H         -1.3546151471       -1.5525966462        0.8648993086
 H         -0.7073617782       -1.3993188949       -0.7653950407
 H         -1.9078799144        0.7624362715       -1.0514976518
 H         -2.6179959331        0.5865209239        0.5518092462
 H         -0.8131695773        2.1440191934        0.7146386510
 H         -0.3278121307        0.6719819006        1.5602506104
 H          1.4024660296        1.8574827277        0.0183381469
 H          0.4773414155        1.1897382760       -1.3345002949
 H          2.6281871397       -2.1031005386        0.1163335940
  16
  -17.8739233900000       1.295473872102363E-002 !mtd9
 C         -1.5450807318       -1.1435144659       -0.1231235917
 C         -1.7298290827        0.3667219068       -0.0490414446
 C         -0.5398128773        1.0961507271        0.5743330970
 C          0.7350424605        1.0440322525       -0.2803519645
 C          1.4638651036       -0.1997234170       -0.1370363009
 C          2.0908501817       -1.2094968533        0.0025220538
 H         -0.7061700741       -1.4008538087       -0.7636562632
 H         -2.4418318622       -1.6135271028       -0.5214470451
 H         -1.3531586759       -1.5513524119        0.8668576436
 H         -1.9064194172        0.7600569950       -1.0537465799
 H         -2.6182284012        0.5865986743        0.5490942214
 H         -0.8145980208        2.1454089985        0.7109334587
 H         -0.3295587133        0.6753159353        1.5601466719
 H          1.4032648051        1.8572794653        0.0207647291
 H          0.4796986790        1.1914295856       -1.3341025914
 H          2.6260769516       -2.1042085717        0.1164778020
  16
  -17.8739233700000       1.295446455114846E-002 !mtd2
 C         -1.5403677138       -1.1541269574        0.0667257222
 C         -1.7248585746        0.3541371261        0.1747686769
 C         -0.5639169489        1.1533803335       -0.4170690653
 C          0.7502817106        1.0058996761        0.3637504909
 C          1.4682939736       -0.2103913839        0.0416550287
 C          2.0855995123       -1.1945138348       -0.2459727226
 H         -2.4190834556       -1.6692230472        0.4491397917
 H         -0.6736370342       -1.4807586664        0.6346016542
 H         -1.3948063702       -1.4452740275       -0.9712254914
 H         -2.6401906953        0.6383854157       -0.3513811862
 H         -1.8524877292        0.6295266549        1.2251765921
 H         -0.4025292860        0.8494769816       -1.4538593788
 H         -0.8417455579        2.2107710280       -0.4184762591
 H          0.5457823268        1.0282734269        1.4384198432
 H          1.4053756747        1.8508225864        0.1283963876
 H          2.6124342771       -2.0684124484       -0.4884316087
  16
  -17.8739233300000       1.295391622885403E-002 !mtd9
 C         -1.5454559717       -1.1434874254       -0.1229953916
 C         -1.7297648120        0.3668299028       -0.0494414448
 C         -0.5398549434        1.0959285181        0.5744986867
 C          0.7351877316        1.0440741551       -0.2798795693
 C          1.4639364273       -0.1999044278       -0.1381683626
 C          2.0910597073       -1.2093047716        0.0031644500
 H         -1.3538811201       -1.5511147356        0.8671500339
 H         -0.7064746235       -1.4012230825       -0.7632718523
 H         -2.4422537383       -1.6133262427       -0.5214203283
 H         -1.9056802204        0.7600500999       -1.0543042887
 H         -2.6184348209        0.5870898598        0.5481271262
 H         -0.8145748876        2.1451817950        0.7112625390
 H         -0.3299489262        0.6748471134        1.5602845549
 H          1.4035926838        1.8567750097        0.0222555384
 H          0.4801221675        1.1927554720       -1.3335141944
 H          2.6257378126       -2.1044799847        0.1162244189
  16
  -17.8713554800000       8.556554720489237E-004 !gc
 C         -2.0365084087       -0.9641956379        0.2416964922
 C         -1.8460933719        0.5263278140       -0.0143354181
 C         -0.4514713274        0.8517560055       -0.5496204017
 C          0.6513898271        0.6952241645        0.5180878572
 C          1.7049797961       -0.1967515145        0.0810541686
 C          2.5579532397       -0.9425652367       -0.3035827324
 H         -1.3063515687       -1.3373748404        0.9559886741
 H         -1.9183061427       -1.5238543003       -0.6837251938
 H         -3.0310754950       -1.1590991693        0.6368472194
 H         -2.5885502757        0.8565646925       -0.7449097321
 H         -2.0222176848        1.0855690649        0.9081525420
 H         -0.2363142562        0.1922030395       -1.3931828248
 H         -0.4451850021        1.8759225413       -0.9277142220
 H          0.2262420178        0.2969860704        1.4432309205
 H          1.0945069158        1.6666172379        0.7537876823
 H          3.3124982360       -1.5935927648       -0.6302945811
