  14
        -19.32179389
 C          2.4363537100        0.0281592742       -0.0012247943
 C          0.9407171741       -0.0060823286        0.0015761057
 C          0.2471690747       -1.2125205042        0.0009302231
 C         -1.1365364446       -1.2019308954       -0.0002758187
 C         -1.7843851027        0.0246627249       -0.0011435327
 N         -1.1412760698        1.1784089734       -0.0002654023
 C          0.1796439935        1.1580922048        0.0011461947
 H          2.8005479198        1.0504924141        0.0600027889
 H          2.8307631613       -0.5364256326        0.8426407675
 H          2.8220235580       -0.4249237704       -0.9141266369
 H          0.7905741491       -2.1476879934        0.0022041412
 H         -1.6995681286       -2.1227858621        0.0001420017
 H         -2.8645045655        0.0900666447       -0.0013434963
 H          0.6582431607        2.1298782859        0.0021520129
