! r2scan-3c def2/J RI DEFGRID2 scfconv6 printgap
%output
    printlevel normal
end
* xyz 0 1
C 1.7607652488 -0.8747613549 1.1958676484
C 1.4876762091 -0.2572796502 -0.1698778313
C 0.3056847282 0.7213095631 -0.2095618271
H 0.4689439201 1.4931644778 0.5629258666
C -1.1049704753 0.13290476 0.0080074361
C -1.3100496475 -1.1980209905 -0.7109460539
C -1.4886479328 0.0263349354 1.481903734
O 0.2534759344 1.3587818851 -1.4818836885
H 1.0039791878 -1.6071983201 1.4590105134
H 1.7836509925 -0.1060761271 1.9647790877
H 2.724495767 -1.378313622 1.1834919569
H 2.3757675417 0.3057482873 -0.4731762938
H 1.3308049408 -1.039545062 -0.9128973957
H -1.7736274177 0.8669787385 -0.4586630768
H -1.0123978198 -1.1085576178 -1.7527952919
H -0.7343415396 -1.9911159122 -0.2414762686
H -2.3611695747 -1.4741736669 -0.6770295622
H -0.9023974407 -0.7311165642 1.9917662097
H -2.5385866693 -0.2442235053 1.5638530013
H -1.3405996982 0.9774379106 1.9878244108
H 1.1172424002 1.7413293043 -1.6862694854
*
