! r2scan-3c def2/J RI DEFGRID2 scfconv6 printgap
%output
    printlevel normal
end
%cpcm
    smd true
    smdsolvent "water"
end
* xyz 0 1
C -2.9274801876 1.4359774837 -0.0039514534
O -2.585433985 0.0611393161 0.0012587363
C -1.2776369947 -0.3377331525 0.0006644167
C -1.1017516111 -1.7239816375 -0.0005671237
C 0.1546596918 -2.2840038757 -0.0009301399
C 1.2826486789 -1.477762265 -0.000480832
C 1.1268432419 -0.1041736552 0.0006670287
C -0.1506070372 0.48404493 0.0016329146
O -0.2397338002 1.8531338869 0.0036163274
O 2.1563625663 0.8104844209 0.0010951198
C 3.484560981 0.3269045199 -0.0027033112
H -2.5498859025 1.9436779374 0.8849363933
H -4.0156696564 1.4502850486 -0.0047567319
H -2.54866321 1.9369999326 -0.8961304144
H -1.990325438 -2.3333970806 -0.0011924062
H 0.2654423298 -3.3560656848 -0.0018080322
H 2.2622316384 -1.9242846938 -0.0009514122
H 0.6631006785 2.2114855238 0.0037037727
H 4.1115245131 1.2156849597 -0.0034281174
H 3.6842991798 -0.2663691211 -0.8982208041
H 3.6888730012 -0.268102443 0.8906277914
*
