! r2scan-3c def2/J RI DEFGRID2 scfconv6 printgap
%output
    printlevel normal
end
%cpcm
    smd true
    smdsolvent "water"
end
* xyz 0 1
C -2.6857481265 0.408542023 0.9431616278
C -2.1530649797 0.3988752213 -0.4849306449
C -0.871613813 -0.4132737313 -0.6049339256
O 0.1685717124 0.2663115074 0.1138534487
C 1.4120427933 -0.1679751103 -0.0355988096
O 1.7047918414 -1.1092786974 -0.7464019446
C 2.3861489784 0.634900976 0.772831354
H -2.9302948866 -0.6008716739 1.2648009239
H -1.9379691528 0.8154342616 1.6185669334
H -3.5818600455 1.0191638948 1.0064313406
H -1.9476484957 1.4195629994 -0.8093556226
H -2.8919328715 -0.0358249567 -1.1580655902
H -0.9909538366 -1.4142976508 -0.1771469039
H -0.5563662561 -0.5227009925 -1.6480151784
H 1.897860153 1.5166049268 1.1729773316
H 3.2317560879 0.9078485745 0.147790707
H 2.7574772801 0.0150974373 1.5858312771
*
