! r2scan-3c def2/J RI DEFGRID2 scfconv6 printgap
%output
    printlevel normal
end
* xyz 0 1
C 1.7356996007 0.6325968879 -0.9522847889
C 1.4137499394 0.0957508094 0.4407151163
C 1.5920900259 -1.4198788585 0.4949309042
C 0.0032396752 0.5129827411 0.8785061269
C -1.1183722681 0.1069937956 -0.0397549852
O -1.1076646012 -0.7826779682 -0.8623095598
O -2.1969778102 0.854549169 0.1679139593
H 1.6017888992 1.7113410826 -0.9895573915
H 1.0831386883 0.1744340549 -1.6919432671
H 2.7649107167 0.4034120746 -1.215923663
H 2.111508108 0.5493421487 1.153691512
H 0.8970736969 -1.9041133709 -0.1858097008
H 2.604402429 -1.6896267409 0.2049736338
H 1.4109804061 -1.7924592953 1.5005066407
H -0.057519617 1.5962362649 0.995928951
H -0.2242127283 0.0688135128 1.8514195812
H -2.9495647503 0.5944433703 -0.397449154
*
