  16
        -25.51675418
 C          2.4531916436       -1.2011572825        0.0012815721
 C          1.7022423184        0.1051872871       -0.0000495964
 O          2.2700099234        1.1733842941       -0.0012086780
 C          0.2157738400        0.0276369845       -0.0000008953
 C         -0.5138239307        1.2190177275        0.0006284617
 C         -1.8947080895        1.1692322364        0.0006702490
 C         -2.5030130058       -0.0786562097        0.0000727679
 N         -1.8267077874       -1.2151760104       -0.0006473314
 C         -0.5082919761       -1.1654412646       -0.0006941770
 H          3.5215636316       -1.0005378082        0.0029007193
 H          2.1960551971       -1.7808087008       -0.8826528629
 H          2.1932208766       -1.7810415003        0.8842010502
 H          0.0225642598        2.1570021344        0.0010838824
 H         -2.4861894671        2.0714532537        0.0011746439
 H         -3.5804910790       -0.1789405003        0.0001758159
 H         -0.0188848240       -2.1297567116       -0.0014427052
