  16
  -25.5167541800000       0.222316742029684      !gc
 C          2.4531916436       -1.2011572825        0.0012815721
 C          1.7022423184        0.1051872871       -0.0000495964
 O          2.2700099234        1.1733842941       -0.0012086780
 C          0.2157738400        0.0276369845       -0.0000008953
 C         -0.5138239307        1.2190177275        0.0006284617
 C         -1.8947080895        1.1692322364        0.0006702490
 C         -2.5030130058       -0.0786562097        0.0000727679
 N         -1.8267077874       -1.2151760104       -0.0006473314
 C         -0.5082919761       -1.1654412646       -0.0006941770
 H          3.5215636316       -1.0005378082        0.0029007193
 H          2.1960551971       -1.7808087008       -0.8826528629
 H          2.1932208766       -1.7810415003        0.8842010502
 H          0.0225642598        2.1570021344        0.0010838824
 H         -2.4861894671        2.0714532537        0.0011746439
 H         -3.5804910790       -0.1789405003        0.0001758159
 H         -0.0188848240       -2.1297567116       -0.0014427052
  16
  -25.5167541500000       0.222309684509072      !mtd9
 C          2.4531843705       -1.2011348367        0.0085578676
 C          1.7022426715        0.1051874399       -0.0006420993
 O          2.2700035363        1.1733596672       -0.0078959377
 C          0.2157712976        0.0276280375       -0.0002327366
 C         -0.5138247290        1.2190008210        0.0039203200
 C         -1.8947088210        1.1692273974        0.0042911851
 C         -2.5030150426       -0.0786557610        0.0005007959
 N         -1.8266994485       -1.2151532527       -0.0039862148
 C         -0.5082757427       -1.1654377668       -0.0044569247
 H          2.1902041892       -1.7776190948        0.8928502307
 H          3.5215726477       -1.0004653601        0.0125644432
 H          2.1989785637       -1.7841540672       -0.8740074302
 H          0.0225698389        2.1569719864        0.0069703416
 H         -2.4861395173        2.0714748706        0.0076346363
 H         -3.5804978447       -0.1789465069        0.0010791802
 H         -0.0189019655       -2.1297675710       -0.0086235348
  16
  -25.5167537400000       0.222213254174596      !mtd11
 C          2.4529001252       -1.2010914893        0.0240532013
 C          1.7022798870        0.1052574265       -0.0017524958
 O          2.2701893677        1.1731464857       -0.0224593048
 C          0.2157457577        0.0278018574       -0.0002908338
 C         -0.5138936691        1.2190772214        0.0112170381
 C         -1.8947153233        1.1690782412        0.0119728528
 C         -2.5030064128       -0.0787805315        0.0013294182
 N         -1.8265901925       -1.2151377182       -0.0112678197
 C         -0.5081776729       -1.1652655208       -0.0123176076
 H          2.2106030254       -1.7868182152       -0.8601515697
 H          2.1779116076       -1.7746168716        0.9064357051
 H          3.5211444114       -1.0005981430        0.0408571622
 H          0.0222694568        2.1571608770        0.0194810418
 H         -2.4865379081        2.0710340856        0.0208696566
 H         -3.5803887153       -0.1791363205        0.0023031868
 H         -0.0188084871       -2.1294837039       -0.0243827755
  16
  -25.5158990400000       8.994500195616427E-002 !mtd10
 C          2.4730452995        1.1632886632       -0.3340876078
 C          1.6997559295       -0.0803311953        0.0281812913
 O          2.2515857952       -1.1161272809        0.3190264374
 C          0.2161737441        0.0230024267        0.0046312826
 C         -0.4846149059        1.2165238087       -0.1640214099
 C         -1.8683184741        1.1838540428       -0.1687423287
 C         -2.5038656556       -0.0389862283       -0.0036113104
 N         -1.8527313328       -1.1791852338        0.1560247922
 C         -0.5359306004       -1.1462235213        0.1597849190
 H          2.2951198800        1.9383750369        0.4088916482
 H          2.1604931525        1.5341045808       -1.3076165813
 H          3.5345664593        0.9310316734       -0.3565145448
 H          0.0321303342        2.1572289970       -0.2817476231
 H         -2.4430283469        2.0884822529       -0.2944977546
 H         -3.5834660117       -0.1123815633        0.0033400981
 H         -0.0286287981       -2.0929554094        0.2903081125
  16
  -25.5158990300000       8.994405016775053E-002 !mtd4
 C          2.4726761104        1.1601630771       -0.3455285589
 C          1.6997836774       -0.0801001243        0.0290388868
 O          2.2517320148       -1.1129213850        0.3301772714
 C          0.2161851291        0.0229945063        0.0046674088
 C         -0.4845609763        1.2156916946       -0.1698167162
 C         -1.8683000338        1.1829800902       -0.1746104610
 C         -2.5038047421       -0.0390471214       -0.0035789650
 N         -1.8526968528       -1.1784974233        0.1614633960
 C         -0.5358918901       -1.1455093500        0.1652686355
 H          3.5341255005        0.9273158462       -0.3681178201
 H          2.2967006586        1.9415350422        0.3914415852
 H          2.1581250353        1.5230077993       -1.3215064715
 H          0.0323339059        2.1557889413       -0.2916384070
 H         -2.4429345605        2.0870104309       -0.3049893568
 H         -3.5834080523       -0.1124243665        0.0030663523
 H         -0.0286724640       -2.0916631060        0.3002666022
  16
  -25.5158989100000       8.993262949336406E-002 !mtd7
 C          2.4725095754        1.1546496773       -0.3635087422
 C          1.6997119380       -0.0795424560        0.0307725505
 O          2.2518004863       -1.1079055103        0.3466215397
 C          0.2161933054        0.0232780478        0.0055064535
 C         -0.4846244725        1.2145029908       -0.1781830291
 C         -1.8683502708        1.1815940523       -0.1836812333
 C         -2.5037974902       -0.0392763572       -0.0042532937
 N         -1.8525641731       -1.1773232246        0.1696746934
 C         -0.5357848388       -1.1441490271        0.1741792030
 H          2.1535330960        1.5060100524       -1.3421517904
 H          3.5335242672        0.9198382259       -0.3882896172
 H          2.3018126781        1.9453965115        0.3647323220
 H          0.0321709341        2.1538785662       -0.3057161161
 H         -2.4430767255        2.0845472091       -0.3208476053
 H         -3.5833866771       -0.1129473998        0.0024984013
 H         -0.0285030510       -2.0892106436        0.3164027954
  16
  -25.5147108600000       2.558157708779947E-002 !gc
 C          2.4603893866       -1.1040203956        0.4739771559
 C          1.7004465226        0.0913714558       -0.0423916662
 O          2.2625343750        1.0873225537       -0.4360978907
 C          0.2144352522        0.0211909888       -0.0093921274
 C         -0.5067940337        1.1955927782        0.2125259565
 C         -1.8880230572        1.1476228907        0.2361413484
 C         -2.5035753298       -0.0791254153        0.0279836924
 N         -1.8339858519       -1.1912695024       -0.2213936741
 C         -0.5162498656       -1.1438719888       -0.2437524209
 H          1.8348864941       -1.9798960259        0.6038361633
 H          2.8869314942       -0.8318923231        1.4393797206
 H          3.2893376191       -1.3243848712       -0.1953859864
 H          0.0311938994        2.1193620530        0.3694925383
 H         -2.4739993286        2.0360538028        0.4121766075
 H         -3.5806073350       -0.1796272305        0.0523022316
 H         -0.0304219457       -2.0792166121       -0.4891332612
  16
  -25.5147076700000       2.549536843999266E-002 !gc
 C          2.4565006514       -1.1017595890        0.4835805413
 C          1.7002745471        0.0918749034       -0.0428439994
 O          2.2647324608        1.0836086161       -0.4435109358
 C          0.2143800305        0.0230542207       -0.0113071169
 C         -0.5073551189        1.1960403951        0.2151483149
 C         -1.8885695637        1.1461716517        0.2412180346
 C         -2.5030016653       -0.0805397298        0.0298815333
 N         -1.8326983329       -1.1909668295       -0.2254163767
 C         -0.5151313592       -1.1420444331       -0.2493014035
 H          3.2608395996       -1.3540558970       -0.2042741997
 H          1.8209759991       -1.9630374223        0.6551298597
 H          2.9176956513       -0.8112474962        1.4272071633
 H          0.0297279205        2.1199312773        0.3743215827
 H         -2.4752623700        2.0331809254        0.4218961365
 H         -3.5798563143       -0.1823960212        0.0564666749
 H         -0.0275019027       -2.0753373649       -0.4989708089
  16
  -25.5140159100000       1.226169214157803E-002 !md4
 C          2.4702664685        0.5303905376        1.0841467721
 C          1.6982910889       -0.0198204875       -0.0903952078
 O          2.2496939351       -0.5285849862       -1.0380618215
 C          0.2144122878        0.0396882885       -0.0076194304
 C         -0.4918545837        1.1089701458        0.5378518371
 C         -1.8753732257        1.0603930583        0.5493648471
 C         -2.5029946238       -0.0552088014        0.0137155191
 N         -1.8441682405       -1.0742057883       -0.5119301965
 C         -0.5283480344       -1.0243294847       -0.5278404853
 H          3.2786309523        1.1626021258        0.7227869342
 H          2.9260431683       -0.3112120522        1.6047842628
 H          1.8461079050        1.0770970797        1.7822619528
 H          0.0240826322        1.9797374875        0.9166743234
 H         -2.4546266095        1.8746220105        0.9563490885
 H         -3.5817509136       -0.1364775311       -0.0049263275
 H         -0.0191030447       -1.8721049607       -0.9665389209
