! pbe def2-sv(p) def2/J RI DEFGRID1 loosescf d4 GCP(DFT/SV(P)) printgap
%output
    printlevel normal
end
* xyz 0 1
C -1.343036857 -0.4291086324 -0.3602358086
C 0.0191066885 -0.0281487736 0.244010677
C 1.1590155583 -0.6875895889 -0.5438404761
O 2.3937829847 -0.6591938265 0.1266986043
O 0.1923811254 1.3769168082 0.1850377356
O -2.4110392185 0.2757050259 0.2277969609
H -1.5325450082 -1.4857542117 -0.1663722146
H -1.319288188 -0.261515656 -1.4432049667
H 0.0557059414 -0.3652507338 1.2880365906
H 1.3123968436 -0.1219413765 -1.4649438918
H 0.8761030267 -1.716925819 -0.7969137036
H 2.3302217221 -1.1686079499 0.9474075973
H -0.1923961453 1.7870910794 0.9707082955
H -2.3448772526 1.2059918986 -0.0335068528
*
