  12
        -31.09676048
 C         -2.4685481066        0.0006223555        1.2752563437
 O         -1.0670687456        0.0004865085        0.9700432514
 C         -0.7501994612       -0.0002359552       -0.3194525392
 C          0.7694893612       -0.0001727764       -0.5290558322
 Cl         1.4487912537        1.4547565906        0.2031133350
 Cl         1.4490931160       -1.4543825117        0.2035908892
 F         -1.2835972017       -1.0709475573       -0.9885897569
 F         -1.2838148557        1.0696068680       -0.9898398272
 H         -2.9440609057        0.8956528383        0.8709529295
 H         -2.5187495085        0.0001582850        2.3598558221
 H         -2.9445277462       -0.8937885511        0.8701030288
 H          0.9944268368       -0.0001780921       -1.5983501590
