  12
        -31.09676048
 C         -2.4685481066        0.0006223555        1.2752563437
 O         -1.0670687456        0.0004865085        0.9700432514
 C         -0.7501994612       -0.0002359552       -0.3194525392
 C          0.7694893612       -0.0001727764       -0.5290558322
 Cl         1.4487912537        1.4547565906        0.2031133350
 Cl         1.4490931160       -1.4543825117        0.2035908892
 F         -1.2835972017       -1.0709475573       -0.9885897569
 F         -1.2838148557        1.0696068680       -0.9898398272
 H         -2.9440609057        0.8956528383        0.8709529295
 H         -2.5187495085        0.0001582850        2.3598558221
 H         -2.9445277462       -0.8937885511        0.8701030288
 H          0.9944268368       -0.0001780921       -1.5983501590
  12
        -31.09530030
 C         -2.7448656736       -0.5543701821        1.0605831213
 O         -1.3608290479       -0.8366740908        0.8017412001
 C         -0.7640663556       -0.0472614595       -0.0949463857
 C          0.7064682700       -0.4625957194       -0.2476415428
 Cl         1.5132315332        0.5775406821       -1.4268017839
 Cl         1.4924559779       -0.3640465095        1.3293362218
 F         -1.3728110301       -0.1317839086       -1.3202793490
 F         -0.8680524104        1.2698722784        0.2240889229
 H         -3.3300423525       -0.6587684414        0.1454880906
 H         -2.8578868058        0.4521583834        1.4661307029
 H         -3.0484838324       -1.2954692416        1.7936491878
 H          0.7484887314       -1.4963815640       -0.5973581259
  12
        -31.08982491
 C         -1.4196246526        0.3844404414        1.6927057666
 O         -1.5037211700       -0.4791788090        0.5572664540
 C         -0.8224302662       -0.1290974588       -0.5411663352
 C          0.7226468936       -0.0352026607       -0.4510861586
 Cl         1.2419676067        1.5021025135        0.2547887734
 Cl         1.3179228470       -1.4060991749        0.4948588633
 F         -1.1071069560       -1.0544263234       -1.4836122463
 F         -1.2773656242        1.0519946098       -1.0655553049
 H         -2.2002357119        0.0331549255        2.3624852379
 H         -1.6100673323        1.4205686109        1.4078107645
 H         -0.4465616647        0.2980783684        2.1793981862
 H          1.1351402245       -0.0997924474       -1.4613779090
  12
        -31.08819976
 C         -1.9763711537        1.4077056061        1.1385282719
 O         -1.6486601394        0.0429839088        0.8836064286
 C         -0.8464838296       -0.2117201197       -0.1673654244
 C          0.5527538154        0.4496531232       -0.1328261970
 Cl         1.2622808796        0.2110680817        1.4714479274
 Cl         1.5791038876       -0.2514120778       -1.3929379611
 F         -0.7338359657       -1.5442831114       -0.2561265581
 F         -1.4389093230        0.1858875915       -1.3412931894
 H         -2.3176340277        1.9029199126        0.2273956147
 H         -1.1260850996        1.9407273828        1.5692157131
 H         -2.7872148167        1.3663106096        1.8612489323
 H          0.4633261490        1.5210422437       -0.3256137127
