  12
  -31.0967604800000       0.233414715841138      !mtd1
 C         -2.4685481066        0.0006223555        1.2752563437
 O         -1.0670687456        0.0004865085        0.9700432514
 C         -0.7501994612       -0.0002359552       -0.3194525392
 C          0.7694893612       -0.0001727764       -0.5290558322
 Cl         1.4487912537        1.4547565906        0.2031133350
 Cl         1.4490931160       -1.4543825117        0.2035908892
 F         -1.2835972017       -1.0709475573       -0.9885897569
 F         -1.2838148557        1.0696068680       -0.9898398272
 H         -2.9440609057        0.8956528383        0.8709529295
 H         -2.5187495085        0.0001582850        2.3598558221
 H         -2.9445277462       -0.8937885511        0.8701030288
 H          0.9944268368       -0.0001780921       -1.5983501590
  12
  -31.0967604800000       0.233414715841138      !md5
 C         -2.4685087406        0.0005705889        1.2752336823
 O         -1.0669979556        0.0003940690        0.9700849119
 C         -0.7501510506       -0.0002093797       -0.3195275461
 C          0.7695566204       -0.0000936096       -0.5290917315
 Cl         1.4486934019        1.4548373865        0.2028763908
 Cl         1.4490227368       -1.4545358181        0.2038114104
 F         -1.2835190021       -1.0708303276       -0.9886649895
 F         -1.2837536314        1.0696887767       -0.9896819018
 H         -2.9445489550       -0.8935817288        0.8697010821
 H         -2.9438726210        0.8958660064        0.8713216112
 H         -2.5187441974       -0.0003767322        2.3598489306
 H          0.9945726685       -0.0004419917       -1.5983606533
  12
  -31.0967604600000       0.233409775928038      !mtd8
 C         -2.4685510845       -0.0003336869        1.2753059336
 O         -1.0670610632       -0.0002860981        0.9700385585
 C         -0.7501744489       -0.0001001521       -0.3194172271
 C          0.7695323435       -0.0005034182       -0.5290992523
 Cl         1.4490601883        1.4548847737        0.2015240929
 Cl         1.4487452386       -1.4542678472        0.2051749195
 F         -1.2838058258       -1.0703528645       -0.9893705037
 F         -1.2834921122        1.0701922610       -0.9890792243
 H         -2.5188241621       -0.0001140705        2.3598663841
 H         -2.9443031681       -0.8950715267        0.8707777828
 H         -2.9445202515        0.8941609800        0.8704642073
 H          0.9944652467       -0.0019378702       -1.5984035662
  12
  -31.0953003000000       4.978241574089202E-002 !mtd9
 C         -2.7448656736       -0.5543701821        1.0605831213
 O         -1.3608290479       -0.8366740908        0.8017412001
 C         -0.7640663556       -0.0472614595       -0.0949463857
 C          0.7064682700       -0.4625957194       -0.2476415428
 Cl         1.5132315332        0.5775406821       -1.4268017839
 Cl         1.4924559779       -0.3640465095        1.3293362218
 F         -1.3728110301       -0.1317839086       -1.3202793490
 F         -0.8680524104        1.2698722784        0.2240889229
 H         -3.3300423525       -0.6587684414        0.1454880906
 H         -2.8578868058        0.4521583834        1.4661307029
 H         -3.0484838324       -1.2954692416        1.7936491878
 H          0.7484887314       -1.4963815640       -0.5973581259
  12
  -31.0953003000000       4.978241574089202E-002 !mtd7
 C         -2.7450259247        0.5552739613        1.0597472424
 O         -1.3606981393        0.8367735904        0.8014742818
 C         -0.7640848587        0.0469464381       -0.0949381797
 C          0.7064022824        0.4623345551       -0.2482936583
 Cl         1.4925259816        0.3664930932        1.3287067439
 Cl         1.5133123194       -0.5796199960       -1.4257631161
 F         -0.8679916661       -1.2699983242        0.2248016867
 F         -1.3730597748        0.1308094424       -1.3203290306
 H         -2.8588482165       -0.4513595614        1.4650854008
 H         -3.3299043145        0.6603704599        0.1445495157
 H         -3.0483002905        1.2962114653        1.7930148998
 H          0.7482067309        1.4955804897       -0.5997605352
  12
  -31.0953002900000       4.978188894868036E-002 !mtd11
 C         -2.7450240339       -0.5545263103        1.0603404872
 O         -1.3606653841       -0.8360564540        0.8023484153
 C         -0.7640876660       -0.0469796576       -0.0947784842
 C          0.7064392926       -0.4624433204       -0.2477484485
 Cl         1.5132023310        0.5786213926       -1.4264041464
 Cl         1.4926206888       -0.3653531088        1.3289526070
 F         -1.3729461756       -0.1322998867       -1.3201026932
 F         -0.8681182687        1.2701386339        0.2236132140
 H         -2.8588729532        0.4517798067        1.4663444899
 H         -3.0487466870       -1.2959974446        1.7930051933
 H         -3.3295792099       -0.6588665288        0.1448257413
 H          0.7481853089       -1.4958438888       -0.5985961919
  12
  -31.0953002800000       4.978136216204315E-002 !mtd5
 C         -2.7446605537       -0.5540607316        1.0608610219
 O         -1.3606595715       -0.8366071430        0.8017343564
 C         -0.7640470071       -0.0473431590       -0.0950425302
 C          0.7064980429       -0.4624195381       -0.2480184557
 Cl         1.5132866685        0.5788280327       -1.4261358089
 Cl         1.4923596791       -0.3652728104        1.3291767906
 F         -1.3728963100       -0.1322643492       -1.3205423971
 F         -0.8682397727        1.2698445115        0.2235509495
 H         -3.0480951526       -1.2947707316        1.7942844435
 H         -3.3301003342       -0.6588433277        0.1460265078
 H         -2.8574830364        0.4525853557        1.4659959438
 H          0.7486213340       -1.4958764719       -0.5986816364
  12
  -31.0953002700000       4.978083538098033E-002 !mtd11
 C         -2.7445003759        0.5546808484        1.0603754662
 O         -1.3605466787        0.8370013713        0.8010582993
 C         -0.7640026603        0.0470441842       -0.0952372631
 C          0.7065047302        0.4621157014       -0.2487851961
 Cl         1.4921954027        0.3680798268        1.3286159575
 Cl         1.5133799987       -0.5813807626       -1.4248890945
 F         -0.8682738605       -1.2698145571        0.2241866677
 F         -1.3729641103        0.1313462314       -1.3207539246
 H         -3.3297925546        0.6564580157        0.1449730403
 H         -3.0486035992        1.2976145088        1.7913234851
 H         -2.8570064369       -0.4507157025        1.4687200537
 H          0.7484524406        1.4948810177       -0.6015372859
  12
  -31.0953002400000       4.977925507142483E-002 !md8
 C         -2.7447243114        0.5546060535        1.0604006825
 O         -1.3609744420        0.8375786061        0.8006324534
 C         -0.7640561958        0.0473324613       -0.0951862363
 C          0.7064549651        0.4626510242       -0.2482674652
 Cl         1.4923693061        0.3657399971        1.3288077150
 Cl         1.5131831220       -0.5792967952       -1.4257203777
 F         -0.8678301009       -1.2695137308        0.2251493094
 F         -1.3727922250        0.1305631596       -1.3206865107
 H         -3.0484470709        1.2962716505        1.7928003599
 H         -2.8568739406       -0.4514843483        1.4673555969
 H         -3.3304397063        0.6575971783        0.1455859837
 H          0.7487040021        1.4958570055       -0.5995017063
  12
  -31.0898249100000       1.516215555298129E-004 !mtd5
 C         -1.4196246526        0.3844404414        1.6927057666
 O         -1.5037211700       -0.4791788090        0.5572664540
 C         -0.8224302662       -0.1290974588       -0.5411663352
 C          0.7226468936       -0.0352026607       -0.4510861586
 Cl         1.2419676067        1.5021025135        0.2547887734
 Cl         1.3179228470       -1.4060991749        0.4948588633
 F         -1.1071069560       -1.0544263234       -1.4836122463
 F         -1.2773656242        1.0519946098       -1.0655553049
 H         -2.2002357119        0.0331549255        2.3624852379
 H         -1.6100673323        1.4205686109        1.4078107645
 H         -0.4465616647        0.2980783684        2.1793981862
 H          1.1351402245       -0.0997924474       -1.4613779090
  12
  -31.0898249100000       1.516215555298129E-004 !mtd1
 C         -1.4183545806        0.3832614770        1.6932628642
 O         -1.5044376613       -0.4787781768        0.5567809238
 C         -0.8225325316       -0.1288838399       -0.5413620749
 C          0.7225620908       -0.0353539969       -0.4509151316
 Cl         1.2421583480        1.5021612313        0.2543927448
 Cl         1.3173115756       -1.4060912300        0.4955400828
 F         -1.1070817931       -1.0541672958       -1.4838884796
 F         -1.2769569938        1.0522629507       -1.0658758979
 H         -1.6073552138        1.4200334203        1.4097438546
 H         -0.4451383131        0.2947404742        2.1793183233
 H         -2.1992614979        0.0323203943        2.3630045112
 H          1.1351135300       -0.1004226207       -1.4611692121
  12
  -31.0898249000000       1.516199510866900E-004 !mtd10
 C         -1.4187297797       -0.3824548405        1.6933752096
 O         -1.5042361999        0.4791293048        0.5565464563
 C         -0.8225477727        0.1284157693       -0.5414037048
 C          0.7225594131        0.0349299528       -0.4510101771
 Cl         1.3174163240        1.4067558087        0.4939996411
 Cl         1.2422739633       -1.5016687037        0.2559576413
 F         -1.2770334253       -1.0533285451       -1.0649483849
 F         -1.1072648378        1.0527736360       -1.4846800097
 H         -0.4458784708       -0.2936027906        2.1800399571
 H         -1.6072340593       -1.4193857092        1.4102009746
 H         -2.2000736826       -0.0315668215        2.3625259923
 H          1.1351711275        0.0989828182       -1.4612809833
  12
  -31.0898248800000       1.516167422513784E-004 !mtd5
 C         -1.4191195603        0.3832417815        1.6929942139
 O         -1.5041735132       -0.4793500659        0.5569080738
 C         -0.8226002643       -0.1289525824       -0.5413343962
 C          0.7225445982       -0.0356574646       -0.4509551370
 Cl         1.2425646271        1.5021267097        0.2538704307
 Cl         1.3174544146       -1.4057459291        0.4959652196
 F         -1.1074330012       -1.0539930294       -1.4841494967
 F         -1.2771725939        1.0522454179       -1.0653160014
 H         -0.4453448442        0.2971781280        2.1783432162
 H         -2.1986404572        0.0308154703        2.3634716211
 H         -1.6106376010        1.4195104449        1.4092939719
 H          1.1352888441       -0.1009699714       -1.4610968540
  12
  -31.0898248500000       1.516119291263126E-004 !mtd6
 C         -1.4188648364       -0.3820564603        1.6937024427
 O         -1.5046075732        0.4789954904        0.5564656829
 C         -0.8225540565        0.1282999801       -0.5413002384
 C          0.7225236059        0.0351606848       -0.4507417659
 Cl         1.3172779242        1.4068520022        0.4938883531
 Cl         1.2424884298       -1.5019693152        0.2558241418
 F         -1.2767131407       -1.0533200206       -1.0650153125
 F         -1.1072760267        1.0528393571       -1.4846057638
 H         -1.6099253330       -1.4187678570        1.4113584722
 H         -2.1985167362       -0.0291498418        2.3637582480
 H         -0.4451002281       -0.2948659944        2.1788497115
 H          1.1350314816        0.0990090978       -1.4610570149
  12
  -31.0898247100000       1.515894698952591E-004 !mtd10
 C         -1.4184498129       -0.3809534317        1.6933377915
 O         -1.5039210782        0.4802965524        0.5561514172
 C         -0.8225710509        0.1284335889       -0.5416781752
 C          0.7226508436        0.0357196171       -0.4510160793
 Cl         1.3166674674        1.4062363543        0.4965237860
 Cl         1.2428294179       -1.5018035596        0.2536774181
 F         -1.2767606849       -1.0538647990       -1.0635818330
 F         -1.1077702774        1.0516699503       -1.4859755177
 H         -2.1971193582       -0.0271178733        2.3641760511
 H         -0.4441373808       -0.2947692095        2.1774776138
 H         -1.6104150594       -1.4175445323        1.4109548268
 H          1.1356951858        0.1017429474       -1.4609837529
  12
  -31.0881997600000       2.715774583098691E-005 !md7
 C         -1.9763711537        1.4077056061        1.1385282719
 O         -1.6486601394        0.0429839088        0.8836064286
 C         -0.8464838296       -0.2117201197       -0.1673654244
 C          0.5527538154        0.4496531232       -0.1328261970
 Cl         1.2622808796        0.2110680817        1.4714479274
 Cl         1.5791038876       -0.2514120778       -1.3929379611
 F         -0.7338359657       -1.5442831114       -0.2561265581
 F         -1.4389093230        0.1858875915       -1.3412931894
 H         -2.3176340277        1.9029199126        0.2273956147
 H         -1.1260850996        1.9407273828        1.5692157131
 H         -2.7872148167        1.3663106096        1.8612489323
 H          0.4633261490        1.5210422437       -0.3256137127
  12
  -31.0881997600000       2.715774583098691E-005 !mtd10
 C         -1.9764915035        1.4076784214        1.1385057763
 O         -1.6488938887        0.0429123514        0.8835977303
 C         -0.8464957882       -0.2118047203       -0.1671523337
 C          0.5525857434        0.4497586782       -0.1323548759
 Cl         1.2627326187        0.2100288647        1.4714494037
 Cl         1.5787885104       -0.2501492491       -1.3933330101
 F         -0.7336929961       -1.5443839285       -0.2558500182
 F         -1.4388800450        0.1856232971       -1.3413032917
 H         -2.7874128974        1.3662376089        1.8610882622
 H         -2.3178646729        1.9028377891        0.2273261392
 H         -1.1261683178        1.9408742952        1.5692312713
 H          0.4630848944        1.5212772016       -0.3243272588
  12
  -31.0881997500000       2.715745845072035E-005 !mtd7
 C         -1.9750345368       -1.4068564909        1.1405704268
 O         -1.6490448790       -0.0421529406        0.8831301755
 C         -0.8465591476        0.2115262041       -0.1677457030
 C          0.5526344878       -0.4497483642       -0.1320738579
 Cl         1.5789884132        0.2494030617       -1.3931580811
 Cl         1.2620516160       -0.2086742890        1.4719915549
 F         -1.4386511743       -0.1874738557       -1.3415282335
 F         -0.7341051172        1.5439867469       -0.2581573465
 H         -1.1249869856       -1.9373309635        1.5751496823
 H         -2.3128426833       -1.9050530641        0.2296955061
 H         -2.7881684587       -1.3650809538        1.8606421878
 H          0.4632225785       -1.5214468711       -0.3231202773
  12
  -31.0881997100000       2.715630895975761E-005 !mtd4
 C         -1.9745293916       -1.4068755571        1.1407627379
 O         -1.6488838479       -0.0421193356        0.8830345855
 C         -0.8466093570        0.2114253818       -0.1681296353
 C          0.5527502381       -0.4496207692       -0.1325482435
 Cl         1.5793598905        0.2513553092       -1.3924325322
 Cl         1.2615452774       -0.2103588107        1.4719344948
 F         -1.4387919327       -0.1879951654       -1.3416085177
 F         -0.7343310269        1.5439536541       -0.2587700671
 H         -2.7856934406       -1.3650744210        1.8630595836
 H         -1.1234603755       -1.9377909380        1.5728247342
 H         -2.3148610887       -1.9045288719        0.2305978417
 H          0.4635376309       -1.5211099839       -0.3251123469
  12
  -31.0881996500000       2.715458481448875E-005 !mtd8
 C         -1.9758025686       -1.4067814095        1.1402428663
 O         -1.6493845121       -0.0421263584        0.8833222049
 C         -0.8465401716        0.2116481053       -0.1672383863
 C          0.5524971823       -0.4499898882       -0.1313358002
 Cl         1.5781143114        0.2462254147       -1.3942721337
 Cl         1.2631073794       -0.2059627464        1.4720038886
 F         -1.4386226184       -0.1866880300       -1.3413323182
 F         -0.7334620401        1.5440956902       -0.2571382573
 H         -2.3132167809       -1.9046740735        0.2291530550
 H         -2.7892321570       -1.3650568085        1.8598906595
 H         -1.1260615274       -1.9374804922        1.5751098785
 H          0.4626389822       -1.5220623134       -0.3199213492
  12
  -31.0881996400000       2.715429746756959E-005 !mtd10
 C         -1.9768260873        1.4076597501        1.1384383513
 O         -1.6483537787        0.0430485394        0.8837789952
 C         -0.8465047448       -0.2115580653       -0.1673987716
 C          0.5528235052        0.4496466857       -0.1329831610
 Cl         1.2623236180        0.2113903819        1.4713674085
 Cl         1.5792498803       -0.2518550783       -1.3928171991
 F         -0.7338761165       -1.5442188315       -0.2561802726
 F         -1.4391249496        0.1859385307       -1.3412408013
 H         -1.1257151674        1.9426277327        1.5654255061
 H         -2.7849761041        1.3657814229        1.8640979537
 H         -2.3223519596        1.9013417892        0.2280005343
 H          0.4635950386        1.5209890771       -0.3260678387
