  21
        -33.53726816
 C         -2.7705509638        0.0811274658       -0.2318653849
 O         -1.5316488456        0.3745983116       -0.8679923082
 C         -0.3996784893       -0.0794236003       -0.2000749117
 C          0.7643974075        0.1940657122       -1.2062207703
 C          2.0583650727        0.2101200049       -0.5865063356
 N          3.0897411074        0.2390038998       -0.0927610055
 O         -0.2276330991        0.5621110727        1.0344016616
 C         -0.0737269439        1.9681774524        0.9912282926
 O         -0.5601176985       -1.4367241108        0.0495920704
 C          0.4198468849       -2.0611531528        0.8613558769
 H         -2.9939849694       -0.9840387201       -0.3053485769
 H         -3.5153598150        0.6632626476       -0.7694488281
 H         -2.7431457090        0.3768009090        0.8191780865
 H          0.7214392577       -0.5907061526       -1.9647443669
 H          0.5722573886        1.1566899328       -1.6845670063
 H          0.9429462230        2.2426356217        0.6940965878
 H         -0.2586802691        2.3131504165        2.0063465257
 H         -0.7968246783        2.4214467210        0.3080641760
 H          0.4870753478       -1.5773895190        1.8364714554
 H          1.4020104592       -2.0472753212        0.3805722209
 H          0.0785908879       -3.0877117152        0.9737284792
  21
        -33.53579395
 C         -1.0930550749        0.9639673090       -1.5544478189
 O         -1.2093589305       -0.0985284627       -0.6263601161
 C         -0.1370861111       -0.2746504446        0.2636324577
 C          1.1850379499       -0.6563631420       -0.4721474338
 C          1.8238570302        0.4853860976       -1.0661334914
 N          2.3404213093        1.3806574433       -1.5544280097
 O          0.1488134316        0.8680370957        0.9890571685
 C         -0.8720429111        1.2990349709        1.8817598604
 O         -0.5118384659       -1.2751948780        1.1595899924
 C         -0.9548070224       -2.5028740070        0.6111059646
 H         -0.6995208635        1.8647936048       -1.0793197280
 H         -2.1025446907        1.1446960235       -1.9188068022
 H         -0.4447784076        0.6877412479       -2.3912528708
 H          1.8549841237       -1.0850084807        0.2766570481
 H          0.9642335930       -1.3966731959       -1.2448279961
 H         -0.5722576932        2.2945442433        2.2001131778
 H         -0.9362025485        0.6278488945        2.7395457411
 H         -1.8389177088        1.3372253193        1.3751935124
 H         -1.3469398541       -3.0653844021        1.4555076551
 H         -0.1275710213       -3.0580724896        0.1575821537
 H         -1.7419487780       -2.3423318765       -0.1266062682
  21
        -33.53544275
 C         -2.7339836496        0.1403169395       -0.4240322698
 O         -1.4924512617       -0.2935511590       -0.9569856174
 C         -0.3219365596       -0.0370465453       -0.2392474526
 C          0.7198101985        0.4531266505       -1.2854309281
 C          2.0676481178        0.4260032367       -0.7898684908
 N          3.1441460036        0.4205079222       -0.4050143819
 O         -0.6134927166        0.9103366582        0.7423300891
 C          0.4612773033        1.3101308771        1.5740909312
 O          0.2206348843       -1.2063832942        0.2994169044
 C         -0.6395499930       -1.9724422885        1.1262818204
 H         -2.9115784992       -0.2499839715        0.5793496092
 H         -3.4779442566       -0.2526762026       -1.1141771029
 H         -2.7875546257        1.2307017134       -0.3974689883
 H          0.6372972025       -0.2211825356       -2.1398921102
 H          0.4499247683        1.4659193512       -1.5933330399
 H          1.1089830803        2.0274362096        1.0627632108
 H          1.0572741852        0.4522716793        1.8916461118
 H         -0.0011552962        1.7851112912        2.4372680216
 H         -1.0420375269       -1.3682921811        1.9446960126
 H         -0.0177193705       -2.7697567514        1.5264352880
 H         -1.4583574429       -2.3984917217        0.5409615543
  21
        -33.53516629
 C         -2.3024206405       -0.2737666481       -1.2887340771
 O         -1.6366086322        0.3183541480       -0.1914766696
 C         -0.2888559819       -0.0604907350        0.0027914511
 C          0.5819630837        0.3694412019       -1.2169799605
 C          1.9756129799        0.3861074862       -0.8635191899
 N          3.0815963741        0.4209156050       -0.5792450469
 O          0.1140516954        0.5100526397        1.2008029153
 C          0.0955211258        1.9245156262        1.2750969758
 O         -0.1445691797       -1.4339895175        0.0935606256
 C         -0.6850659209       -2.0305046816        1.2675783124
 H         -2.0439510406        0.2287114667       -2.2266716920
 H         -3.3653596740       -0.1473053600       -1.0928402362
 H         -2.0646762414       -1.3374122280       -1.3658437977
 H          0.4248064231       -0.3605415298       -2.0130363859
 H          0.2735676443        1.3626076797       -1.5520821916
 H         -0.8601407238        2.3216090030        0.9280552946
 H          0.9193613753        2.3606913451        0.7016716678
 H          0.2301881397        2.1546655188        2.3294327137
 H         -0.0701318230       -1.7874881846        2.1346514300
 H         -0.6690802571       -3.1014425663        1.0790184480
 H         -1.7081867559       -1.6879175465        1.4368497100
  21
        -33.53356428
 C         -2.2417251887       -0.2998513476       -1.3052510612
 O         -1.5656044249        0.4066383784       -0.2827105167
 C         -0.2219503139        0.0671932478       -0.0783772603
 C          0.6504919621        0.3331945156       -1.3358558697
 C          2.0421963497        0.1826135039       -1.0009329380
 N          3.1502563771        0.0624199889       -0.7520175882
 O          0.2765806768        0.8595782291        0.9491672327
 C         -0.6334748848        1.5365266442        1.8020211885
 O         -0.0723625308       -1.3007223536        0.1769330518
 C         -0.5393063520       -1.7630394180        1.4330313540
 H         -3.3026698275       -0.1784254048       -1.0950145658
 H         -1.9793922397       -1.3602659195       -1.2893066881
 H         -2.0160460509        0.1216057988       -2.2895549867
 H          0.3920304558       -0.3894384770       -2.1115796895
 H          0.4634992958        1.3523536017       -1.6804599578
 H         -1.3491536963        0.8569866821        2.2677171714
 H         -1.1781208553        2.3093370422        1.2552360611
 H         -0.0024501751        1.9923265815        2.5621577696
 H          0.0416043087       -1.3214252001        2.2458730298
 H         -0.3886437381       -2.8399629724        1.4159338177
 H         -1.6021078028       -1.5377296783        1.5657770393
  21
        -33.53299253
 C         -2.1437035419        0.3350314126       -0.8862452342
 O         -0.7481780155        0.0641062911       -0.9166430976
 C         -0.1809499537       -0.2749317782        0.3135910024
 C          1.3342659735       -0.5093708977        0.0302655628
 C          1.9235876905        0.5489097541       -0.7422642418
 N          2.4076494554        1.3783121720       -1.3626082949
 O         -0.4068172615        0.6782117926        1.2996274400
 C          0.0987886100        1.9806857050        1.0610134866
 O         -0.7700939300       -1.4087529385        0.8776285789
 C         -0.7775824177       -2.5855918143        0.0892005057
 H         -2.3634059271        1.1836586061       -0.2353878277
 H         -2.7027618173       -0.5352129104       -0.5351257526
 H         -2.4120824602        0.5684743289       -1.9135578582
 H          1.8446072869       -0.6088890423        0.9912913623
 H          1.4358714653       -1.4357926314       -0.5379096656
 H         -0.0807810325        2.3023454389        0.0325941935
 H          1.1712534758        2.0349187662        1.2700518950
 H         -0.4374990030        2.6279857771        1.7523227633
 H          0.1330167787       -3.1719077885        0.2510009109
 H         -0.8840224966       -2.3548899034       -0.9738651174
 H         -1.6359614917       -3.1647911635        0.4257614842
  21
        -33.53278178
 C         -2.0648360942       -0.2550622032       -1.0546882753
 O         -0.7985852720        0.3699690466       -0.9266689453
 C         -0.0574960685        0.1038649998        0.2298943825
 C          1.3048528577        0.8071263775       -0.0125777576
 C          2.0070768918        0.1409668998       -1.0782062031
 N          2.5738761805       -0.3708245856       -1.9272998804
 O         -0.7131291160        0.5841319356        1.3738800014
 C         -1.0188327185        1.9653201468        1.3896779912
 O          0.2507851839       -1.2325666573        0.4337127667
 C         -0.6501474305       -2.0777438375        1.1392616418
 H         -2.6123667598       -0.2359376774       -0.1089339885
 H         -1.9535497153       -1.2841906490       -1.4046386036
 H         -2.6020577659        0.3246747575       -1.8037527046
 H          1.1300255528        1.8454802120       -0.2981200227
 H          1.8918356714        0.7512443663        0.9059843514
 H         -0.1454708172        2.5573402292        1.6790714166
 H         -1.8003550522        2.0863154300        2.1377467732
 H         -1.3848549053        2.2987026190        0.4157011396
 H         -1.1246068587       -1.5475144297        1.9639217594
 H         -0.0286799834       -2.8828543170        1.5280930573
 H         -1.4101384704       -2.4963395643        0.4753229846
  21
        -33.53258222
 C         -1.4570821544       -0.3463034135       -1.8681306109
 O         -1.1639339703        0.3677087795       -0.6808856908
 C         -0.1896681398       -0.1701214485        0.1515001360
 C          1.1583857667       -0.4557586163       -0.5743193597
 C          1.6983786738        0.7344809813       -1.1713804202
 N          2.1325213167        1.6776382203       -1.6480983823
 O         -0.0898567638        0.7961850293        1.1452929875
 C          0.8987139876        0.5932491373        2.1386930146
 O         -0.5617685720       -1.4245545941        0.6646741849
 C         -1.7858747892       -1.4361869848        1.3873761466
 H         -0.7218175236       -0.1310496893       -2.6499673176
 H         -2.4329330704        0.0135471617       -2.1882049879
 H         -1.5040582070       -1.4239495643       -1.6859526253
 H          1.8619470662       -0.8626416131        0.1540300305
 H          0.9832615715       -1.2134440137       -1.3400201538
 H          0.9337198345       -0.4515209228        2.4610917874
 H          0.6024830187        1.2243222465        2.9742982813
 H          1.8852213617        0.9082296679        1.7840043192
 H         -2.6163482727       -1.1241098345        0.7505789965
 H         -1.7330364867       -0.7716581122        2.2523574002
 H         -1.9211223827       -2.4661556409        1.7086646634
  21
        -33.53134108
 C         -1.4404429399        0.1985807408       -1.8108689221
 O         -1.0453891453        0.6281146395       -0.5199567945
 C         -0.2853163244       -0.2587156851        0.2280006358
 C          1.1093812602       -0.5702180334       -0.4425665050
 C          1.6871955725        0.5831600971       -1.0690890316
 N          2.1424726715        1.4980903958       -1.5833851592
 O         -0.0956613260        0.2751527991        1.4980939305
 C          0.1658181839        1.6668179921        1.5748374803
 O         -1.0041863701       -1.4540585093        0.3442070021
 C         -0.6348614888       -2.3299905907        1.3921329908
 H         -2.1775435601        0.9281622701       -2.1378755118
 H         -1.8907230731       -0.7942448507       -1.7710296542
 H         -0.5933561646        0.2038728763       -2.5039073348
 H          1.7792048296       -0.9330885130        0.3404838598
 H          0.9621791756       -1.3538383319       -1.1898654934
 H          1.0547298561        1.9345253861        0.9980921831
 H          0.3353001545        1.8598935061        2.6318559747
 H         -0.6862173507        2.2447445436        1.2160457645
 H         -1.3608827485       -3.1390096141        1.3514719675
 H         -0.6856037805       -1.8288299096        2.3591068625
 H          0.3713754789       -2.7324426651        1.2389395833
  21
        -33.53130157
 C         -2.5672787268       -0.2959402308       -1.1017189693
 O         -1.6571848972        0.5538131425       -0.4299631225
 C         -0.4375053788       -0.0012560716       -0.0171870703
 C          0.6110477103        0.2487928244       -1.1693428302
 C          1.9690774278        0.1846924499       -0.7136079065
 N          3.0525385965        0.1517230096       -0.3473913174
 O         -0.0594539062        0.5947848200        1.1798006600
 C          0.0518167118        2.0066158888        1.1799175315
 O         -0.6105193029       -1.3607103670        0.1983186472
 C          0.3738823511       -2.0151094780        0.9821685284
 H         -2.1217941697       -0.7212691911       -2.0051935224
 H         -3.4026182227        0.3477076500       -1.3694257203
 H         -2.9072406898       -1.1039553308       -0.4527894516
 H          0.4425593242       -0.5118307351       -1.9354350443
 H          0.4155443992        1.2368301363       -1.5926619450
 H          0.9531271327        2.3299563992        0.6498971563
 H          0.1308907601        2.2850975353        2.2282063472
 H         -0.8328282892        2.4669317192        0.7373224014
 H          0.4060416011       -1.6042212095        1.9915656040
 H          1.3633265106       -1.9330294678        0.5248761740
 H          0.0610266289       -3.0565471173        1.0077058442
