  13
        -18.61338322
 C          2.2308645854       -0.2197468040        0.1012209555
 O          0.8907716071       -0.2727556460       -0.3099892945
 C          0.0926468336        0.7434907688        0.2602096226
 C         -1.3348862454        0.5455591362       -0.2479646742
 O         -1.8718141770       -0.6763845743        0.1817654496
 H          2.3183246901       -0.3385530553        1.1884622898
 H          2.6969523073        0.7305233548       -0.1866597460
 H          2.7425485719       -1.0407447847       -0.3968049668
 H          0.1140636999        0.6684389683        1.3578982134
 H          0.4652565352        1.7366341307       -0.0314638397
 H         -1.3285331472        0.6000694849       -1.3457478365
 H         -1.9841009269        1.3297694516        0.1464774724
 H         -1.2327511042       -1.3622219892       -0.0488937903
  13
        -18.61278855
 C          1.8768242027       -0.3073349639       -0.5413159085
 O          0.9950250648       -0.1838803078        0.5483127702
 C          0.0485568165        0.8578732657        0.4292359198
 C         -1.1352936897        0.4540722989       -0.4579568845
 O         -1.7664386377       -0.6963897339        0.0412567261
 H          2.4120667695        0.6323493358       -0.7216481815
 H          1.3614829534       -0.6022486004       -1.4617423654
 H          2.5899176823       -1.0827292398       -0.2679745941
 H         -0.3104469274        1.0356394359        1.4465373857
 H          0.5181680338        1.7727544314        0.0441745334
 H         -0.7906896848        0.2825440414       -1.4894780853
 H         -1.8808682687        1.2518443068       -0.4713157420
 H         -1.0695726136       -1.2885517858        0.3556713616
  13
        -18.61160190
 C          2.0659657053       -0.5613374702        0.0178696177
 O          1.2873589309        0.5593785434       -0.3260106341
 C          0.0281598729        0.6137268191        0.2967275918
 C         -0.9809321501       -0.4070540781       -0.2575206114
 O         -2.2733833791       -0.1971625499        0.2526808502
 H          1.6545058148       -1.4891205840       -0.3930990095
 H          2.1539041653       -0.6619322136        1.1061401582
 H          3.0516035052       -0.3877217673       -0.4099253236
 H          0.1234489544        0.4791066839        1.3846240991
 H         -0.3425644187        1.6259192813        0.1014345142
 H         -0.7118430837       -1.4207198766        0.0469418005
 H         -0.9724602546       -0.3542751092       -1.3556993930
 H         -2.5702138016        0.6854173591        0.0034461593
  13
        -18.61099386
 C          1.5391107070       -0.8401989841        0.1044948057
 O          1.2529251152        0.4635758586       -0.3499721441
 C          0.0677739588        1.0093347910        0.1698259993
 C         -1.2185725528        0.3443402645       -0.3485205325
 O         -1.5594142851       -0.8474111347        0.3197469349
 H          1.6404616909       -0.8594803827        1.1973151128
 H          2.4872730324       -1.1183062702       -0.3509815519
 H          0.7659554560       -1.5534915177       -0.1932112129
 H          0.0795462442        0.9685867523        1.2727471456
 H          0.0773734011        2.0557933584       -0.1443225550
 H         -1.0833889836        0.0691788129       -1.3964963736
 H         -2.0418803152        1.0691779574       -0.2770464663
 H         -1.6875926972       -0.6574801189        1.2560182636
  13
        -18.61085514
 C          2.4137540267       -0.0301835323        0.1239740304
 O          1.1673050580        0.1262897764       -0.5041201500
 C          0.0819177067       -0.0870017113        0.3643747654
 C         -1.2133609291        0.0599753822       -0.4383305808
 O         -2.3589719016       -0.0996089324        0.3581518464
 H          3.1694063386        0.1544036199       -0.6364304650
 H          2.5347572714       -1.0453100238        0.5221334684
 H          2.5391221149        0.6862140229        0.9459459299
 H          0.1317976487       -1.0917982370        0.8117345724
 H          0.1000666702        0.6508994137        1.1864799980
 H         -1.2604401852       -0.7209202944       -1.1990296255
 H         -1.2075661161        1.0355079612       -0.9422705125
 H         -2.3717439735        0.5892336713        1.0324769130
  13
        -18.61073028
 C          2.0478559742       -0.3374924017       -0.5177933421
 O          1.3177564065        0.2128754357        0.5514020856
 C          0.0211597971        0.6433086007        0.2233400352
 C         -0.9734321852       -0.5005160202       -0.0388661787
 O         -2.2969406293       -0.0328940214       -0.1175596034
 H          2.0566185358        0.3392674222       -1.3811907241
 H          1.6520946486       -1.3094060301       -0.8307562935
 H          3.0650281869       -0.4689993643       -0.1536280692
 H         -0.3239422644        1.2137413839        1.0900216392
 H          0.0502811542        1.3131628775       -0.6535063510
 H         -0.9495032677       -1.1998731880        0.7995587195
 H         -0.7026773780       -1.0406026938       -0.9575541439
 H         -2.3602464729        0.6158953371       -0.8276377703
  13
        -18.61055126
 C          1.7281703844       -0.4568466433        0.5261899127
 O          1.0195758701       -0.0596453668       -0.6242670015
 C          0.0544156940        0.9385390919       -0.4042907859
 C         -1.1365628436        0.4758048517        0.4490529210
 O         -1.6156086086       -0.7878797675        0.0638579425
 H          2.5281898513       -1.1072518128        0.1781421410
 H          1.0918770477       -1.0106119128        1.2231201567
 H          2.1595821945        0.4096832849        1.0413403235
 H          0.5065276610        1.8267784644        0.0632802252
 H         -0.2959116671        1.2072962529       -1.4059519255
 H         -1.9316002793        1.2329753345        0.3667511543
 H         -0.8540118602        0.3919013862        1.5023389156
 H         -1.4417983779       -0.9075191269       -0.8770439571
  13
        -18.61054911
 C          1.7325266666       -0.4554466833        0.5266291551
 O          1.0264828962       -0.0579616218       -0.6249560963
 C          0.0551734362        0.9339407215       -0.4062617972
 C         -1.1331741839        0.4718069466        0.4516651450
 O         -1.6242101345       -0.7855754028        0.0641688644
 H          2.1587889220        0.4114829095        1.0458709239
 H          2.5363840524       -1.1015683700        0.1793374504
 H          1.0963527385       -1.0141459457        1.2196961162
 H          0.5026862978        1.8266284454        0.0579664294
 H         -0.2980837726        1.1977270605       -1.4083039182
 H         -1.9215688888        1.2375775359        0.3822422135
 H         -0.8435969375        0.3748652429        1.5013445743
 H         -1.5425346258       -0.8668647819       -0.8930492704
  13
        -18.60986932
 C          1.6118467056       -0.7929906572        0.1441688886
 O          1.2816279371        0.5669004684        0.0136246948
 C          0.0188576240        0.8234824528       -0.5584823902
 C         -1.1765460879        0.4323060507        0.3297487585
 O         -1.6975352031       -0.8445208273        0.0469092063
 H          2.6731472025       -0.8282063019        0.3854557033
 H          1.4367162508       -1.3383500693       -0.7917334390
 H          1.0547101788       -1.2776179159        0.9561786126
 H          0.0106654895        1.9018621766       -0.7270229834
 H         -0.0781077946        0.3091278771       -1.5267813680
 H         -2.0037258806        1.1203517595        0.1462294941
 H         -0.8791206742        0.5163246106        1.3840252716
 H         -1.0243134768       -1.5116435028        0.2204797748
  13
        -18.60951796
 C          1.5661828788       -0.8307416898        0.0932841367
 O          1.2561584399        0.5441446325        0.0879661669
 C          0.0374153691        0.8540562583       -0.5358773457
 C         -1.2003911659        0.4709176936        0.2865766493
 O         -1.5375257355       -0.8769463308        0.0304029648
 H          0.8143761646       -1.4142716869        0.6312540335
 H          2.5297580459       -0.9242479314        0.5905690694
 H          1.6409895054       -1.2173055553       -0.9301255780
 H          0.0523626125        1.9378735748       -0.6723088508
 H         -0.0341555773        0.3620854182       -1.5160323438
 H         -2.0314409627        1.1301659841        0.0005971246
 H         -0.9789104699        0.6236847431        1.3515793414
 H         -2.3315172231       -1.1047870142        0.5247031528
  13
        -18.60931771
 C          2.0791488639        0.1536315651        0.4968129154
 O          1.2761583886        0.0847709986       -0.6563108952
 C          0.0088524926       -0.4879478080       -0.4580150651
 C         -0.9777707744        0.4257991863        0.2802075859
 O         -2.2401362470       -0.2004386035        0.2428110766
 H          2.1497626316       -0.8240422503        0.9884130562
 H          1.7031692648        0.8871940592        1.2184322603
 H          3.0678232786        0.4611461451        0.1608548829
 H         -0.3898090133       -0.6859038202       -1.4555515011
 H          0.0871353452       -1.4409442149        0.0840303404
 H         -1.0031737132        1.4017774817       -0.2239318238
 H         -0.6557133639        0.5761614822        1.3206155704
 H         -2.8874732017        0.3705290098        0.6694893368
  13
        -18.60926748
 C          2.4052166915       -0.0485309040        0.1520495682
 O          1.1721964696        0.1718500351       -0.4833354648
 C          0.0719317637       -0.1212289165        0.3442225307
 C         -1.2079107178        0.1517525910       -0.4382859272
 O         -2.3033201673       -0.1441640570        0.3983217665
 H          3.1770443967        0.2071479832       -0.5708937729
 H          2.5170010927       -1.0979648015        0.4519119945
 H          2.5132062887        0.5833974368        1.0424286268
 H          0.0887038964       -1.1752601947        0.6589961462
 H          0.0856398578        0.5037943858        1.2494784445
 H         -1.2151501898       -0.4755379991       -1.3393615038
 H         -1.2179277326        1.2048717378       -0.7485268450
 H         -3.1183895967        0.0246539384       -0.0855389393
  13
        -18.60875811
 C          2.2716900741       -0.1912205642       -0.1053416076
 O          0.9392231301       -0.2859596966        0.3207562265
 C          0.1040975768        0.6876085180       -0.2528934136
 C         -1.3187902976        0.5184348016        0.2791459288
 O         -1.9487394703       -0.6567247883       -0.1518831733
 H          2.8169740701       -0.9844072496        0.4011971530
 H          2.7069499031        0.7809198378        0.1607096850
 H          2.3561348398       -0.3260143573       -1.1917490950
 H          0.4652232567        1.6983923450       -0.0017207057
 H          0.1078019266        0.5913194343       -1.3536517351
 H         -1.9044710238        1.4032159730       -0.0173083143
 H         -1.2904203770        0.4565218305        1.3683130500
 H         -1.8292209497       -0.7492760892       -1.1039867221
  13
        -18.60770278
 C          1.8694353586       -0.6211515248        0.2751542577
 O          1.3059322019        0.5897887438       -0.1677964917
 C         -0.0001880221        0.4665036446       -0.6745986192
 C         -1.0813999965        0.3713316288        0.4176062991
 O         -1.9580027883       -0.6822158276        0.0788059086
 H          1.9264189423       -1.3495336516       -0.5430119864
 H          1.2994344075       -1.0657589875        1.0981709349
 H          2.8732382330       -0.3833111408        0.6216576449
 H         -0.1588620943        1.3514356670       -1.2937232299
 H         -0.0909728810       -0.4279997270       -1.3058436046
 H         -1.6296933474        1.3185453365        0.4971667496
 H         -0.5980752011        0.1776049672        1.3853890833
 H         -2.6591865024       -0.7359845667        0.7363973091
  13
        -18.60705650
 C          2.2730161017       -0.2225949158        0.1518883861
 O          0.9945967419       -0.1773336194       -0.4231995553
 C          0.0898856530        0.6144257057        0.3087477103
 C         -1.2964780999        0.4860453392       -0.3146883742
 O         -1.9539437537       -0.6167057237        0.2664651949
 H          2.2422559981       -0.6541764413        1.1601409057
 H          2.7179828486        0.7794549444        0.2129655411
 H          2.8829026041       -0.8513095398       -0.4934497204
 H          0.0370224087        0.2756782176        1.3531048060
 H          0.4153615619        1.6669641514        0.2953494033
 H         -1.1724274130        0.3506120375       -1.3954422230
 H         -1.8681124307        1.4077887636       -0.1306048290
 H         -2.7347335052       -0.8319593699       -0.2533014737
  13
        -18.60682474
 C          2.2665090239       -0.2290372746       -0.1667297850
 O          0.9872000034       -0.1621749476        0.4043524129
 C          0.0868448257        0.6127691548       -0.3522047921
 C         -1.2976377922        0.5186543824        0.2844755139
 O         -1.9542855049       -0.6411757640       -0.1800000749
 H          2.8729416796       -0.8419720034        0.4969813941
 H          2.7153402598        0.7690900314       -0.2551719495
 H          2.2353400671       -0.6886560728       -1.1626703975
 H          0.4203879838        1.6625392162       -0.3763125620
 H          0.0271408869        0.2383932837       -1.3838053145
 H         -1.8849676849        1.4052514402        0.0053856665
 H         -1.1703053482        0.5031065985        1.3704766682
 H         -2.4451841179       -1.0489748610        0.5377635945
  13
        -18.60618782
 C          2.0010401798       -0.1474254055       -0.5452494466
 O          1.0890639360       -0.2750860777        0.5148389935
 C          0.0513860926        0.6715091698        0.5171256057
 C         -1.0767968451        0.3896010760       -0.4839888898
 O         -1.9459433171       -0.5658817914        0.0769908340
 H          2.7882183296       -0.8753827745       -0.3589658209
 H          2.4355980706        0.8606277412       -0.5734188799
 H          1.5451585746       -0.3585868245       -1.5195263366
 H         -0.3775168323        0.6313941226        1.5208454749
 H          0.4560138765        1.6777632996        0.3302441788
 H         -0.6557936525        0.0268118228       -1.4309855848
 H         -1.6159166511        1.3284530236       -0.6819966057
 H         -2.6000985367       -0.8298117250       -0.5781263129
