! r2scan-3c def2/J RI DEFGRID2 scfconv6 printgap
%output
    printlevel normal
end
* xyz 0 1
C -2.2063275341 1.0485258913 0.3783060392
C -1.8223988144 -0.3829154915 0.0248602746
C -0.5451076677 -0.5176883905 -0.8087411056
C 0.7743444181 -0.1356540214 -0.0971819943
C 1.1255619665 1.3425199145 -0.31776931
C 1.9133014532 -0.998239966 -0.6637263441
O 0.6149014115 -0.4064220035 1.2909545062
H -1.5134001838 1.460785426 1.1062085782
H -3.2020835964 1.0675879429 0.8159101925
H -2.208764922 1.6779160577 -0.5091776856
H -1.7029188891 -0.9583889392 0.9435505199
H -2.6344269163 -0.8334191662 -0.5513332502
H -0.4717798444 -1.5644499611 -1.1108292533
H -0.6357134658 0.0849134072 -1.7135190348
H 2.063290271 1.5834558107 0.180042587
H 0.3492098491 1.9884826412 0.0784461147
H 1.2398173475 1.5414378842 -1.3794311397
H 1.9551125487 -0.898937828 -1.7444850688
H 1.746020257 -2.0431622305 -0.4119573039
H 2.870916661 -0.6893243316 -0.2492171894
H 1.4480519529 -0.2142863956 1.7408098254
*
