! r2scan-3c def2/J RI DEFGRID2 scfconv6 printgap
%output
    printlevel normal
end
%cpcm
    smd true
    smdsolvent "water"
end
* xyz 0 1
C 4.951140413 1.2048386065 0.0133547782
C 4.5334476415 -0.2546991036 -0.1167591929
C 3.0533184904 -0.5719549446 -0.0459992283
O 2.671693791 -1.7315674027 0.0495213969
N 2.2196232954 0.4972590977 -0.1104952591
C 0.8294132415 0.5344512069 -0.0794658918
C 0.2045726835 1.7812352241 -0.162022945
C -1.170845752 1.8812099806 -0.1355550021
C -1.9493947945 0.7385572661 -0.0259389174
C -1.3331897432 -0.5033098787 0.0565947332
C 0.0457141241 -0.6117433833 0.0304651683
Cl -2.2892113289 -1.9436461161 0.1944294057
Cl -3.6781417309 0.8639431103 0.0075330224
H 4.6133174874 1.79609732 -0.8342947621
H 6.0367294805 1.2572218029 0.0333716307
H 4.5819988985 1.6386221177 0.9393583196
H 5.0070783702 -0.8544647188 0.6635683723
H 4.8845358795 -0.6613315972 -1.0688983734
H 2.6592390281 1.4057603126 -0.1913295836
H 0.7967567706 2.678052695 -0.2471153318
H -1.653392083 2.8420776395 -0.1992129367
H 0.5115287928 -1.5807665534 0.0951706887
*
