! r2scan-3c def2/J RI DEFGRID2 scfconv6 printgap
%output
    printlevel normal
end
* xyz 0 1
C -2.1856180902 -0.2408377288 -1.1990142576
C -2.2041913975 0.3217529672 0.2173571848
C -1.2190320531 -0.3332030254 1.190363305
C 0.2837408347 -0.1918891371 0.9037286791
C 0.8519309825 -1.1991806781 -0.122716075
C 1.8154897444 -0.4055797695 -1.0181888475
C 2.0950973758 0.8803870445 -0.2416829458
C 0.7462541041 1.1815239621 0.4026390322
H -2.9861636375 0.2060057218 -1.7852937844
H -1.2442531966 -0.0262150248 -1.6961760229
H -2.3368118407 -1.3182099137 -1.1844477641
H -2.0250577194 1.3977893413 0.1839855639
H -3.2060166503 0.1791322391 0.6316116107
H -1.4120009968 0.102025998 2.1748265721
H -1.4483378698 -1.3995768392 1.2600269056
H 0.7935371014 -0.3765052068 1.8565079578
H 1.3814734995 -1.9984465386 0.3967947048
H 0.0623826328 -1.6626064905 -0.7088238831
H 2.7251041703 -0.9619673757 -1.2399687943
H 1.3340184995 -0.1590217234 -1.9660828616
H 2.8454622803 0.6979459166 0.529560174
H 2.4473188902 1.6878941408 -0.8823372241
H 0.8127829996 1.9114595504 1.2085265611
H 0.0677748617 1.5656912536 -0.3575273076
*
