! pbe def2-sv(p) def2/J RI DEFGRID1 loosescf d4 GCP(DFT/SV(P)) printgap
%output
    printlevel normal
end
* xyz 0 1
C -2.9655168806 0.000408474 0.2398408824
C -1.6516697986 0.7674955093 0.1708701577
C -0.4883652834 -0.1270996245 -0.1722339535
O -0.570663867 -1.2366246653 -0.6560114311
O 0.6700466581 0.4576426306 0.1107289377
C 1.878961974 -0.2635167343 -0.1838537371
C 3.0337998502 0.4499489367 0.492089505
H -3.1320940873 -0.5381212641 -0.6896096755
H -2.9396368792 -0.7257975678 1.0481522712
H -3.7908005166 0.6853369556 0.4073486511
H -1.4284225619 1.2703783232 1.1118431453
H -1.7007699736 1.5322339679 -0.6078308538
H 1.7655185857 -1.2916161082 0.175504925
H 2.0038000301 -0.2928365882 -1.271199165
H 2.8826500444 0.4693935633 1.5673613207
H 3.9581121209 -0.0726497472 0.26950826
H 3.1014937431 1.4711760629 0.1296341182
*
