  22
        -46.00533596
 C          4.9418807776        0.6911968101        0.0012113579
 C          4.9419046790       -0.6911948292        0.0017647024
 C          3.7433466950       -1.3868980791        0.0009657319
 C          2.5432479209       -0.6973076760       -0.0003241495
 C          2.5431909425        0.6973681694       -0.0006820835
 C          3.7433272199        1.3869155753       -0.0000240469
 O          1.3739820899        1.4283213872       -0.0016010151
 C          0.2163291331        0.6998058522       -0.0009990175
 C         -0.9845519669        1.3868003418       -0.0004433959
 C         -2.1884744601        0.6944623968       -0.0000001114
 C         -2.1884715172       -0.6944654405       -0.0002295586
 C         -0.9845502851       -1.3868023101       -0.0006406929
 C          0.2163883485       -0.6998645590       -0.0009466745
 O          1.3739832736       -1.4283109926       -0.0012582985
 Cl        -3.6673978174       -1.5715679446        0.0003571543
 Cl        -3.6674575481        1.5715564334        0.0009383154
 H          5.8726110452        1.2361569834        0.0015190165
 H          5.8726467738       -1.2361390057        0.0027615357
 H          3.7164818941       -2.4644911886        0.0012966052
 H          3.7165069266        2.4645223949       -0.0005350918
 H         -0.9711374433        2.4640232717       -0.0003627158
 H         -0.9712314852       -2.4640262181       -0.0007125828
