! r2scan-3c def2/J RI DEFGRID2 scfconv6 printgap
%output
    printlevel normal
end
* xyz 0 1
C 1.8827586908 -0.3214351549 0.8894265879
C 1.5284763024 0.2411337188 -0.4816383525
C 0.2497430812 -0.3332804519 -1.099375276
C -1.0690774075 0.0007964464 -0.3645538205
H -1.8790531794 -0.0168221636 -1.114607718
C -1.4332788949 -1.0207770858 0.7106106705
O -1.0473828708 1.280257412 0.2467412379
H 1.8661359322 -1.4088711822 0.8768905638
H 1.1842091213 0.0369796991 1.6404402136
H 2.8803867681 0.003902282 1.1766538496
H 1.4392339166 1.3258683155 -0.4014893666
H 2.3468657594 0.0281120522 -1.1738231405
H 0.179820037 0.0510856867 -2.1203551413
H 0.3341431217 -1.4187129355 -1.1633895716
H -2.3704899337 -0.7274722764 1.1771631685
H -1.5518935218 -2.0020615489 0.2613933359
H -0.6690386845 -1.0663669848 1.4777784504
H -0.9412982041 1.9551181396 -0.4357901152
*
