! pbe def2-sv(p) def2/J RI DEFGRID1 loosescf d4 GCP(DFT/SV(P)) printgap
%output
    printlevel normal
end
* xyz 0 1
C 2.2890554178 -0.2368291929 -0.7585183314
C 1.5331597176 -0.6265292631 0.5067613434
C 0.3463788248 0.2879626823 0.8116462345
C -0.7713199797 0.2784814016 -0.2408008856
H -0.3683399586 0.5800526102 -1.2130022298
C -1.4433712139 -1.0880256059 -0.3660956537
O -1.7264516392 1.2883922067 0.0529114091
H 1.67342587 -0.379308701 -1.6427050059
H 3.1817518945 -0.848424017 -0.864881351
H 2.5906682472 0.8072227256 -0.714457746
H 1.1921123159 -1.6593564862 0.424683564
H 2.2192720899 -0.5754999582 1.3552000989
H -0.0847359496 -0.005557908 1.7730060854
H 0.7018373798 1.3171607261 0.9064560257
H -2.3120888865 -1.0067877253 -1.0151812123
H -0.7571463041 -1.8103399117 -0.7961588878
H -1.7653171616 -1.4447659345 0.6102932234
H -2.1501336275 1.0778040077 0.8970111468
*
