  20
        -22.40855214
 C          1.8817311915        0.0088252874       -0.2858832698
 C          1.1851325260       -1.2507362785        0.2198529567
 C         -0.2810715733       -1.2573038790       -0.2011423125
 C         -1.0053136271       -0.0075332657        0.3227197838
 C         -0.2975091283        1.2461726106       -0.1912646578
 C          1.1682108239        1.2549487151        0.2303183240
 N         -2.4131861310        0.0555242656       -0.0404171317
 H          1.8735740467        0.0131842256       -1.3785235367
 H          2.9237967638        0.0133043810        0.0405988311
 H          1.6873072037       -2.1384270951       -0.1715795480
 H          1.2464677055       -1.2850183104        1.3102248397
 H         -0.3474460753       -1.2759283915       -1.2932509234
 H         -0.7747354846       -2.1560941409        0.1799405547
 H         -0.9654019262       -0.0117530224        1.4193918064
 H         -0.3647339687        1.2694896267       -1.2820253785
 H         -0.8126265189        2.1269017953        0.1939816640
 H          1.6579224741        2.1513434797       -0.1557386791
 H          1.2308000068        1.2823050967        1.3205507361
 H         -2.9027901695       -0.7645722653        0.3018637259
 H         -2.5100280472        0.0707025458       -1.0511051555
