  20
  -22.4085521400000       0.212531330840126      !mtd10
 C          1.8817311915        0.0088252874       -0.2858832698
 C          1.1851325260       -1.2507362785        0.2198529567
 C         -0.2810715733       -1.2573038790       -0.2011423125
 C         -1.0053136271       -0.0075332657        0.3227197838
 C         -0.2975091283        1.2461726106       -0.1912646578
 C          1.1682108239        1.2549487151        0.2303183240
 N         -2.4131861310        0.0555242656       -0.0404171317
 H          1.8735740467        0.0131842256       -1.3785235367
 H          2.9237967638        0.0133043810        0.0405988311
 H          1.6873072037       -2.1384270951       -0.1715795480
 H          1.2464677055       -1.2850183104        1.3102248397
 H         -0.3474460753       -1.2759283915       -1.2932509234
 H         -0.7747354846       -2.1560941409        0.1799405547
 H         -0.9654019262       -0.0117530224        1.4193918064
 H         -0.3647339687        1.2694896267       -1.2820253785
 H         -0.8126265189        2.1269017953        0.1939816640
 H          1.6579224741        2.1513434797       -0.1557386791
 H          1.2308000068        1.2823050967        1.3205507361
 H         -2.9027901695       -0.7645722653        0.3018637259
 H         -2.5100280472        0.0707025458       -1.0511051555
  20
  -22.4085521300000       0.212529081856259      !mtd9
 C          1.8815806433       -0.0181232539       -0.2862772999
 C          1.1602948618       -1.2643182618        0.2188419440
 C         -0.3053907577       -1.2425720297       -0.2024169966
 C         -1.0052783051        0.0108872916        0.3229142095
 C         -0.2731395236        1.2608230470       -0.1894137040
 C          1.1930090453        1.2410371557        0.2312727793
 N         -2.4134185079       -0.0396745543       -0.0411409175
 H          1.8730436836       -0.0124342320       -1.3789268397
 H          2.9237112169       -0.0322208077        0.0397705228
 H          1.6443441149       -2.1602474730       -0.1753283562
 H          1.2228179826       -1.3018633010        1.3087748457
 H         -0.3729330498       -1.2557745187       -1.2933242676
 H         -0.8259708880       -2.1234640791        0.1750652654
 H         -0.9656244191        0.0047452776        1.4195885711
 H         -0.3394958374        1.2900180566       -1.2813127173
 H         -0.7611077058        2.1591127178        0.2000709952
 H          1.7006954959        2.1291437419       -0.1520154254
 H          1.2547260585        1.2647879944        1.3218981920
 H         -2.5099132332       -0.0448509571       -1.0520046374
 H         -2.8977157703        0.7805742399        0.3083164975
  20
  -22.4085519500000       0.212488604219163      !gc
 C          1.8819526357        0.0088480894       -0.2852802167
 C          1.1850339162       -1.2508069090        0.2197789267
 C         -0.2809949866       -1.2571574785       -0.2017528453
 C         -1.0051957121       -0.0075015437        0.3224151954
 C         -0.2974613322        1.2460655306       -0.1920418551
 C          1.1680275852        1.2549805398        0.2303488922
 N         -2.4133238005        0.0555665874       -0.0396248889
 H          1.8750998477        0.0134085840       -1.3779734888
 H          2.9236315383        0.0132179137        0.0423801673
 H          1.6872800704       -2.1382670360       -0.1719909788
 H          1.2460293129       -1.2857623752        1.3102060474
 H         -0.3472658119       -1.2753131815       -1.2939079981
 H         -0.7747549660       -2.1560804072        0.1788542269
 H         -0.9645221581       -0.0114922185        1.4190409514
 H         -0.3642385500        1.2688597623       -1.2828355051
 H         -0.8127619696        2.1269702977        0.1925603216
 H          1.6579639433        2.1513850590       -0.1553924878
 H          1.2298053709        1.2824600482        1.3206163796
 H         -2.5111087100        0.0679305536       -1.0502608480
 H         -2.9033063282       -0.7631231070        0.3055209683
  20
  -22.4085516500000       0.212421158621870      !gc
 C          1.8821907888       -0.0181351732       -0.2845588994
 C          1.1599264177       -1.2645723713        0.2186459605
 C         -0.3053886677       -1.2423325398       -0.2039759498
 C         -1.0048963566        0.0108940693        0.3223269335
 C         -0.2730674059        1.2605053958       -0.1911050320
 C          1.1926885819        1.2413087951        0.2311143124
 N         -2.4137388459       -0.0397210797       -0.0392449730
 H          1.8764926270       -0.0123574199       -1.3772343838
 H          2.9235130063       -0.0320439339        0.0441570302
 H          1.6443493135       -2.1602276830       -0.1756881622
 H          1.2209651814       -1.3031274802        1.3086212392
 H         -0.3721600314       -1.2542381746       -1.2948935536
 H         -0.8263747590       -2.1235559825        0.1721599521
 H         -0.9635423358        0.0047932553        1.4189113768
 H         -0.3386314380        1.2881985176       -1.2830946554
 H         -0.7613273057        2.1593170599        0.1967803746
 H          1.7008812785        2.1291007644       -0.1522967568
 H          1.2529869894        1.2660181169        1.3218326247
 H         -2.8981159808        0.7787018474        0.3143391766
 H         -2.5125045393       -0.0416218616       -1.0498917722
  20
  -22.4069892000000       4.065794928311046E-002 !md2
 C          1.8706097541       -0.0040862615       -0.3294318611
 C          1.1770289266       -1.2558811548        0.1980728476
 C         -0.3000682250       -1.2493405175       -0.1809185993
 C         -0.9990644867        0.0012434473        0.3540433536
 C         -0.2922346900        1.2529644883       -0.1678161047
 C          1.1848678265        1.2464433447        0.2111722338
 N         -2.3786937998        0.0079590224       -0.1149655408
 H          1.8251364882        0.0017683080       -1.4205503049
 H          2.9226241441       -0.0089008107       -0.0361586350
 H          1.6572500529       -2.1488335704       -0.2073688477
 H          1.2721195892       -1.2902110200        1.2864363800
 H         -0.4082431678       -1.2625263018       -1.2666070566
 H         -0.7918798191       -2.1410436923        0.2155754642
 H         -0.9292296732       -0.0047635367        1.4599978926
 H         -0.4002214688        1.2781808934       -1.2533050894
 H         -0.7785183300        2.1434975020        0.2379536379
 H          1.6706420478        2.1405774635       -0.1849973345
 H          1.2801998022        1.2688295661        1.2998101261
 H         -2.8714238553       -0.8120731514        0.2224209727
 H         -2.8660283381        0.8280525993        0.2300739327
  20
  -22.4069891800000       4.065708881150083E-002 !md3
 C          1.8703760810       -0.0040396977       -0.3300113583
 C          1.1771819760       -1.2558628201        0.1979700522
 C         -0.3001579260       -1.2494838165       -0.1801791267
 C         -0.9991792481        0.0012662458        0.3542322694
 C         -0.2922392970        1.2531211604       -0.1672048096
 C          1.1849999873        1.2463981075        0.2112332421
 N         -2.3784493595        0.0079312864       -0.1157231848
 H          1.8241066198        0.0018612216       -1.4211039921
 H          2.9226203003       -0.0087930526       -0.0375441819
 H          1.6571326441       -2.1488895985       -0.2076806822
 H          1.2729582954       -1.2900421418        1.2862705950
 H         -0.4088837933       -1.2632951167       -1.2658359531
 H         -0.7917593611       -2.1409461438        0.2171409272
 H         -0.9302041037       -0.0046538622        1.4602299664
 H         -0.4006866142        1.2788127648       -1.2526275424
 H         -0.7782946582        2.1435009965        0.2391450086
 H          1.6706037702        2.1406393812       -0.1848255226
 H          1.2807626989        1.2684467865        1.2998479579
 H         -2.8660904885        0.8279212649        0.2289925111
 H         -2.8713575131       -0.8122881604        0.2208565296
  20
  -22.4064822900000       2.377857164569359E-002 !mtd11
 C          1.7802489442        0.0095882707       -0.1725811419
 C          0.9343129253       -1.2426892940       -0.3790198778
 C         -0.2259887740       -1.2697524287        0.6122780846
 C         -1.1112739306       -0.0147213755        0.4951256992
 C         -0.2522321716        1.2465108512        0.6350816875
 C          0.9237133609        1.2610538980       -0.3387857148
 N         -1.8980717515        0.0578565829       -0.7262671209
 H          2.6064881346        0.0242797090       -0.8869614791
 H          2.2067046504       -0.0063527968        0.8333403155
 H          0.5508564900       -1.2582383201       -1.4029223074
 H          1.5488497828       -2.1362640118       -0.2475147734
 H         -0.8370566128       -2.1622497535        0.4484863901
 H          0.1717492150       -1.3217879068        1.6281140736
 H         -1.8381550210       -0.0298883338        1.3186332256
 H         -0.8856585291        2.1179661746        0.4652345636
 H          0.1296085433        1.2944840466        1.6570293178
 H          0.5542385305        1.3183409337       -1.3648830157
 H          1.5292306669        2.1522352483       -0.1600478553
 H         -2.4852816532       -0.7645051250       -0.8134896509
 H         -1.2892557461        0.0872408257       -1.5364854620
  20
  -22.4064822800000       2.377832002338557E-002 !mtd5
 C          1.7801285904       -0.0125918776       -0.1732504926
 C          0.9182990717       -1.2556210810       -0.3721407746
 C         -0.2575162313       -1.2616536736        0.6019959921
 C         -1.1112821796        0.0063985475        0.4954443913
 C         -0.2204391845        1.2539725818        0.6459750251
 C          0.9394765969        1.2483277265       -0.3460910008
 N         -1.8982226535       -0.0305477075       -0.7273773819
 H          2.6060893274       -0.0118427890       -0.8881115488
 H          2.2069557984       -0.0251263765        0.8325663654
 H          0.5484493880       -1.2842807725       -1.3992827958
 H          1.5200344102       -2.1537836091       -0.2171067688
 H         -0.8946087226       -2.1257080983        0.4095097539
 H          0.1242905303       -1.3380452652        1.6222203926
 H         -1.8381842612        0.0029349187        1.3190811964
 H         -0.8276912087        2.1531187165        0.5062765298
 H          0.1776990031        1.2770705453        1.6627217921
 H          0.5558229214        1.2926794319       -1.3690765590
 H          1.5578501705        2.1354891449       -0.1911524616
 H         -1.2894784071       -0.0426404648       -1.5380641847
 H         -2.4814585922        0.7969068553       -0.7936457812
  20
  -22.4062470100000       1.853781577658442E-002 !mtd2
 C          1.7531797262       -0.0002352947       -0.2142609085
 C          0.8892795337       -1.2439140634       -0.3912417593
 C         -0.2345958961       -1.2611194538        0.6394783936
 C         -1.1026357266       -0.0052396341        0.5208037622
 C         -0.2302309323        1.2437978608        0.6742819482
 C          0.8937975859        1.2510358572       -0.3564402001
 N         -1.7483393489        0.0140786255       -0.7851207765
 H          2.5507933489        0.0086985118       -0.9600176882
 H          2.2184881624       -0.0149025547        0.7749425553
 H          0.4489414469       -1.2347307838       -1.3888206154
 H          1.4977146952       -2.1451735064       -0.2888650523
 H         -0.8559212662       -2.1488402678        0.4980831099
 H          0.1864946143       -1.3031438924        1.6464011187
 H         -1.8420756158       -0.0154573138        1.3478313549
 H         -0.8483658181        2.1372726000        0.5573229356
 H          0.1907681830        1.2565104688        1.6820590199
 H          0.4536170921        1.2713883620       -1.3538890448
 H          1.5055338648        2.1468028290       -0.2288312366
 H         -2.3345977147        0.8368465777       -0.8754149486
 H         -2.3367084543       -0.8041269943       -0.8989476403
  20
  -22.4041971700000       2.118445633294374E-003 !mtd8
 C          1.8803118597        0.0066513919       -0.3088641957
 C          1.1841338122       -1.2491788516        0.2057870410
 C         -0.2882839199       -1.2489075418       -0.1944519395
 C         -1.0013582728       -0.0047630428        0.3381509524
 C         -0.2919751338        1.2512042183       -0.1839678982
 C          1.1789795068        1.2550448179        0.2173558968
 N         -2.4047552154        0.0390460701       -0.0803683464
 H          1.8559929031        0.0116525973       -1.4008685513
 H          2.9268418660        0.0055112342        0.0037523818
 H          1.6743828137       -2.1395138843       -0.1944389968
 H          1.2624576780       -1.2858733996        1.2952388512
 H         -0.3705229881       -1.2591841917       -1.2842692304
 H         -0.7772002689       -2.1484853336        0.1913777928
 H         -0.9288413056       -0.0075265795        1.4358420266
 H         -0.3845767313        1.2720342395       -1.2708084450
 H         -0.7976163057        2.1341373414        0.2091045120
 H          1.6670675956        2.1497837477       -0.1743519730
 H          1.2578186429        1.2813888525        1.3070959386
 H         -3.0293878790        0.1196600704        0.7110672561
 H         -2.6581217824       -0.7959808190       -0.5938343995
  20
  -22.4004205700000       3.894145126696895E-005 !mtd1
 C          1.8980134446        0.0387602954       -0.2237274765
 C          1.1891684538       -1.2107835443        0.3145903633
 C         -0.2504188125       -1.2666844688       -0.1829119769
 C         -1.0776321980       -0.1124751070        0.4202906035
 C         -0.2079949115        1.1443587298        0.5901171953
 C          0.9102541488        1.1906613513       -0.4450052860
 N         -2.2566914383        0.2272755766       -0.3642055153
 H          2.3949254021       -0.1935165985       -1.1678378855
 H          2.6705669532        0.3453966363        0.4836695146
 H          1.7298002690       -2.1071117422        0.0047763959
 H          1.1788405176       -1.1958041579        1.4061645586
 H         -0.2561251018       -1.1897568189       -1.2739665301
 H         -0.7065250556       -2.2237953900        0.0810475669
 H         -1.4480938937       -0.4192942994        1.4060042385
 H         -0.8542677492        2.0177233695        0.4957315692
 H          0.2315776340        1.1596019112        1.5881295584
 H          0.4765829531        1.1246191776       -1.4448577567
 H          1.4356477548        2.1452679965       -0.3845261228
 H         -1.9775076700        0.5435618836       -1.2879008462
 H         -2.8464080500       -0.5893407269       -0.4859863681
  20
  -22.4004205400000       3.894021505720347E-005 !mtd1
 C          1.8970583898       -0.0459422875       -0.2267513298
 C          0.9024118993       -1.1886346833       -0.4655010939
 C         -0.2147606936       -1.1528422132        0.5712156531
 C         -1.0770226500        0.1116888704        0.4225288295
 C         -0.2427589351        1.2717388427       -0.1593791552
 C          1.1966760249        1.1974563025        0.3361409988
 N         -2.2571234176       -0.2076273148       -0.3690872280
 H          2.3920686499        0.2008659540       -1.1682417173
 H          2.6704317769       -0.3689887291        0.4723460138
 H          0.4681994007       -1.1043697111       -1.4637845258
 H          1.4223442194       -2.1471482190       -0.4207088583
 H         -0.8661893388       -2.0207659991        0.4628865890
 H          0.2253162227       -1.1870983059        1.5685526322
 H         -1.4470566636        0.4031209154        1.4130501894
 H         -0.2493000149        1.2147039770       -1.2516893817
 H         -0.6926620075        2.2267494357        0.1222367634
 H          1.7427809829        2.0960813622        0.0429336252
 H          1.1870459755        1.1616833264        1.4272663434
 H         -1.9785347422       -0.5093611126       -1.2978054258
 H         -2.8419764532        0.6144134226       -0.4771519261
  20
  -22.4004204700000       3.893733072065660E-005 !gc
 C          1.8975004960        0.0385449349       -0.2255454922
 C          1.1894605469       -1.2104835567        0.3147599907
 C         -0.2504554139       -1.2670761922       -0.1816083491
 C         -1.0779706616       -0.1124711931        0.4204389691
 C         -0.2078214064        1.1438161869        0.5914313495
 C          0.9097310363        1.1909442256       -0.4444737886
 N         -2.2559293155        0.2278008227       -0.3656306796
 H          2.3916335729       -0.1942492222       -1.1710291949
 H          2.6722886143        0.3445112552        0.4797283530
 H          1.7300856529       -2.1069831764        0.0053933677
 H          1.1799983373       -1.1942697602        1.4063610871
 H         -0.2567019078       -1.1911043250       -1.2727689175
 H         -0.7058140118       -2.2241746924        0.0834517055
 H         -1.4500993530       -0.4189321659        1.4056302341
 H         -0.8537379652        2.0176617361        0.4987130425
 H          0.2325717503        1.1575126559        1.5890977845
 H          0.4751617566        1.1265604568       -1.4441049900
 H          1.4354951599        2.1452604829       -0.3830492616
 H         -2.8458864221       -0.5885208946       -0.4878514209
 H         -1.9753046553        0.5436870049       -1.2889724662
  20
  -22.4004201500000       3.892414790231164E-005 !mtd6
 C          1.8972545795       -0.0453031601       -0.2276862509
 C          0.9032650005       -1.1889973951       -0.4647050250
 C         -0.2148958977       -1.1528144109        0.5710144783
 C         -1.0770900692        0.1117987777        0.4222124039
 C         -0.2425458576        1.2715407885       -0.1598441906
 C          1.1963655882        1.1967879096        0.3368979008
 N         -2.2576656790       -0.2072193423       -0.3688629582
 H          2.3892388604        0.2025718845       -1.1704203859
 H          2.6730007290       -0.3673624228        0.4693381993
 H          0.4695484781       -1.1070059154       -1.4633255840
 H          1.4239708982       -2.1469494210       -0.4177351811
 H         -0.8663840075       -2.0205674726        0.4616441040
 H          0.2243046649       -1.1877775177        1.5686360127
 H         -1.4467461307        0.4033504816        1.4127962265
 H         -0.2482417148        1.2138057782       -1.2520821985
 H         -0.6924460499        2.2267864448        0.1208444886
 H          1.7428584285        2.0958586699        0.0460189415
 H          1.1857419296        1.1589254642        1.4279399550
 H         -2.8437778086        0.6142756819       -0.4738786852
 H         -1.9799939112       -0.5063046438       -1.2986575120
  20
  -22.4002508800000       3.254078370664824E-005 !mtd6
 C          1.8011327192        0.0210994016        0.4217654134
 C          1.1737000445       -1.3233467472        0.0313435044
 C         -0.2807538119       -1.1555992769       -0.4214815888
 C         -0.9565547457       -0.0177040780        0.3409300782
 C         -0.2933773052        1.3238074274       -0.0430807776
 C          1.1879359397        1.1510689552       -0.3977463043
 N         -2.3904787754       -0.0547639492        0.0987437928
 H          2.8808141059       -0.0140144157        0.2658901127
 H          1.6290074462        0.2220999557        1.4808639611
 H          1.7472332038       -1.7785601090       -0.7783264022
 H          1.2185798935       -2.0017465900        0.8849669951
 H         -0.3229726793       -0.9321144094       -1.4896907787
 H         -0.8396501705       -2.0767552788       -0.2560021512
 H         -0.8253627539       -0.1949392195        1.4147289769
 H         -0.8230445533        1.7502445277       -0.9004258512
 H         -0.3984314602        2.0260616851        0.7874267483
 H          1.2965129617        0.9161933908       -1.4582833769
 H          1.7223387356        2.0850094896       -0.2132889367
 H         -2.8515601553        0.7003893997        0.5951038675
 H         -2.5793400924        0.0672172370       -0.8916372610
  20
  -22.4002508500000       3.253975068827621E-005 !mtd2
 C          1.8008655722       -0.0349159495        0.4221355178
 C          1.1808951103       -1.1568074898       -0.4033386618
 C         -0.3019989645       -1.3214452643       -0.0512752763
 C         -0.9565075521        0.0218970863        0.3409279115
 C         -0.2734126459        1.1598262992       -0.4148536172
 C          1.1822757862        1.3154561511        0.0382740820
 N         -2.3901888838        0.0697112896        0.0990063847
 H          2.8807846044       -0.0059436393        0.2666405663
 H          1.6272251378       -0.2402032876        1.4801392383
 H          1.2923034177       -0.9176423282       -1.4626511380
 H          1.7089962559       -2.0951221467       -0.2226558634
 H         -0.8336402893       -1.7383785487       -0.9119999804
 H         -0.4129046569       -2.0284825203        0.7742920607
 H         -0.8241913237        0.1918485929        1.4157562621
 H         -0.3174665786        0.9430122502       -1.4843937188
 H         -0.8263114757        2.0835569781       -0.2436258335
 H          1.7585870768        1.7706007214       -0.7694232400
 H          1.2321082114        1.9894943266        0.8950054129
 H         -2.8560774224       -0.6853963585        0.5910030024
 H         -2.5797277967       -0.0455752467       -0.8920740375
  20
  -22.4002508300000       3.253906202770252E-005 !mtd7
 C          1.8006515093        0.0209550980        0.4225632727
 C          1.1735614109       -1.3234187547        0.0312224377
 C         -0.2806546444       -1.1554805631       -0.4222041106
 C         -0.9562541205       -0.0176286155        0.3404767270
 C         -0.2936458799        1.3237356365       -0.0446515731
 C          1.1883083866        1.1513145876       -0.3970141906
 N         -2.3904110538       -0.0549036911        0.0999965950
 H          2.8804560518       -0.0141438820        0.2675387608
 H          1.6277454253        0.2215565237        1.4816051018
 H          1.7475076213       -1.7783627592       -0.7782328603
 H          1.2179152262       -2.0021434946        0.8845280389
 H         -0.3222768015       -0.9314553902       -1.4903532772
 H         -0.8396305513       -2.0766982684       -0.2573321418
 H         -0.8238151974       -0.1943783997        1.4141960870
 H         -0.8224217712        1.7481874333       -0.9034945866
 H         -0.4005478673        2.0273803209        0.7844004026
 H          1.2987664585        0.9172223727       -1.4575668998
 H          1.7223012774        2.0852256162       -0.2110891780
 H         -2.5804027038        0.0660062658       -0.8903261679
 H         -2.8510293237        0.7008234384        0.5959844608
  20
  -22.4001682600000       2.981662512666976E-005 !mtd8
 C          1.8019741284        0.0486101881        0.4217165745
 C          1.2010246757       -1.3094004365        0.0377931003
 C         -0.2554785910       -1.1701698307       -0.4188354862
 C         -0.9591679977       -0.0352488918        0.3394020066
 C         -0.3179297384        1.3098773339       -0.0364678208
 C          1.1631770461        1.1619141836       -0.4008348461
 N         -2.3922101923        0.0409870354        0.1001692713
 H          2.8820048869        0.0329787788        0.2644539936
 H          1.6264951717        0.2504963066        1.4800966452
 H          1.7847391344       -1.7593751257       -0.7679155541
 H          1.2558406655       -1.9828236230        0.8952460446
 H         -0.2983594320       -0.9523007759       -1.4890902970
 H         -0.7864235798       -2.1118125779       -0.2547909564
 H         -0.8371821555       -0.2125268642        1.4142540315
 H         -0.8647379844        1.7347935838       -0.8803875024
 H         -0.4326235243        1.9985404797        0.8006700607
 H          1.2716836267        0.9243883731       -1.4609317000
 H          1.6800320190        2.1065152380       -0.2234065756
 H         -2.8474172719       -0.8130012551        0.4049383419
 H         -2.5739398109        0.1480077330       -0.8932206490
  20
  -22.4001682500000       2.981630961032406E-005 !mtd6
 C          1.8013241570       -0.0625454589        0.4218230772
 C          1.1558228556       -1.1673523268       -0.4069287821
 C         -0.3263624986       -1.3075818496       -0.0438926516
 C         -0.9590491018        0.0394759315        0.3394317218
 C         -0.2478430288        1.1743095878       -0.4118902748
 C          1.2097232275        1.3015019166        0.0448867695
 N         -2.3925206366       -0.0261771594        0.0994427899
 H          2.8813620234       -0.0531032190        0.2649675310
 H          1.6242902267       -0.2689619978        1.4789227193
 H          1.2662011939       -0.9245822976       -1.4656366318
 H          1.6664797523       -2.1162872669       -0.2347140796
 H         -0.8755698173       -1.7237578453       -0.8907225131
 H         -0.4460819448       -2.0005615486        0.7891070456
 H         -0.8362386632        0.2097087789        1.4153169652
 H         -0.2924235143        0.9631278967       -1.4834025503
 H         -0.7725862258        2.1183940633       -0.2420529690
 H          1.7961877510        1.7513059171       -0.7588799156
 H          1.2694511089        1.9704528533        0.9054915369
 H         -2.8422182540        0.8292581326        0.4083742513
 H         -2.5746193885       -0.1267504627       -0.8945810676
  20
  -22.4001682500000       2.981630961032406E-005 !mtd6
 C          1.8018432816       -0.0625190802        0.4214166415
 C          1.1556691708       -1.1671872721       -0.4069264678
 C         -0.3264734850       -1.3075305031       -0.0435918635
 C         -0.9591567660        0.0394868682        0.3397523312
 C         -0.2479402379        1.1741907938       -0.4116366030
 C          1.2096746285        1.3013894342        0.0449771131
 N         -2.3925502766       -0.0261896581        0.0990455459
 H          2.8817270088       -0.0529638587        0.2634634925
 H          1.6258988160       -0.2691434136        1.4786339255
 H          1.2658989789       -0.9246581535       -1.4657254704
 H          1.6663872179       -2.1160482415       -0.2345634617
 H         -0.8756920618       -1.7236396334       -0.8904226718
 H         -0.4462332745       -2.0004941084        0.7893965695
 H         -0.8368363245        0.2098892691        1.4157218110
 H         -0.2927155953        0.9631295562       -1.4831807376
 H         -0.7726683093        2.1182455344       -0.2416001540
 H          1.7957668594        1.7516783031       -0.7587348165
 H          1.2695703130        1.9699709953        0.9058271388
 H         -2.5741505224       -0.1273198157       -0.8950440755
 H         -2.8423186462        0.8295028502        0.4072504082
  20
  -22.4001681500000       2.981315463071715E-005 !mtd10
 C          1.8023199609        0.0486629531        0.4211450143
 C          1.2011009509       -1.3094207211        0.0379744874
 C         -0.2554935993       -1.1702421088       -0.4183294485
 C         -0.9594112973       -0.0352842828        0.3396386760
 C         -0.3178140026        1.3098798470       -0.0354945739
 C          1.1629511020        1.1617955082       -0.4011133485
 N         -2.3922970849        0.0410744085        0.0994896261
 H          2.8819914057        0.0329178562        0.2628191315
 H          1.6279316613        0.2508080278        1.4794533072
 H          1.7844159514       -1.7596558447       -0.7677882127
 H          1.2561288801       -1.9826344431        0.8955275564
 H         -0.2984536496       -0.9526971282       -1.4886016320
 H         -0.7863651731       -2.1118355872       -0.2539863549
 H         -0.8381591046       -0.2128335618        1.4145348151
 H         -0.8649866048        1.7355890088       -0.8789450589
 H         -0.4317559270        1.9981101947        0.8022626984
 H          1.2704718730        0.9238454502       -1.4612181282
 H          1.6800549885        2.1064349856       -0.2245504528
 H         -2.5732319493        0.1510497010       -0.8937615956
 H         -2.8473617078       -0.8141523026        0.4011345153
  20
  -22.4001400200000       2.893878409916602E-005 !mtd1
 C          1.8891110804        0.0123045331       -0.2590311569
 C          1.1710438156       -1.2202942625        0.3051840969
 C         -0.2788336122       -1.2597009080       -0.1629288764
 C         -1.0799365763       -0.0927601748        0.4325329374
 C         -0.1727550789        1.1463247657        0.6153646912
 C          0.9194651506        1.1849855072       -0.4471540223
 N         -2.2446845596        0.1438756768       -0.4068358133
 H          2.3462964707       -0.2314230901       -1.2199700898
 H          2.6930594750        0.3026404509        0.4199580597
 H          1.6901487121       -2.1268901588       -0.0099517995
 H          1.1871477033       -1.1972388475        1.3965635007
 H         -0.3108553359       -1.1961205327       -1.2521651908
 H         -0.7492961800       -2.2011876381        0.1202735632
 H         -1.4674979532       -0.3869368600        1.4153438577
 H         -0.7855672110        2.0506818690        0.5613028829
 H          0.2907925156        1.1254618363        1.6031058875
 H          0.4579537831        1.1322098953       -1.4359206645
 H          1.4637868980        2.1299855364       -0.3946463162
 H         -2.8414682488        0.8541725067        0.0035160784
 H         -1.9539064947        0.4758520737       -1.3210207407
  20
  -22.4001399200000       2.893572197405283E-005 !mtd7
 C          1.8891900056       -0.0191312739       -0.2593469792
 C          0.9120682720       -1.1817231117       -0.4693770411
 C         -0.1795635751       -1.1563613121        0.5941628036
 C         -1.0793699395        0.0912498580        0.4343763622
 C         -0.2712691052        1.2641672535       -0.1395042293
 C          1.1784061440        1.2071702138        0.3274505574
 N         -2.2455626002       -0.1228083220       -0.4091316614
 H          2.3486213202        0.2392788679       -1.2153747079
 H          2.6907464680       -0.3272074481        0.4146395028
 H          0.4506592682       -1.1070395193       -1.4567543676
 H          1.4505651830       -2.1308578640       -0.4352752975
 H         -0.7977658055       -2.0559236732        0.5239246278
 H          0.2844755802       -1.1562568967        1.5818679850
 H         -1.4651314966        0.3695545048        1.4224868711
 H         -0.3039774436        1.2211380874       -1.2297281909
 H         -0.7358781030        2.2030675023        0.1613790446
 H          1.7029453531        2.1161652012        0.0287024228
 H          1.1945224121        1.1642405943        1.4182502694
 H         -2.8465694729       -0.8369314986       -0.0118398884
 H         -1.9567076875       -0.4399554072       -1.3291942520
  20
  -22.4001397900000       2.893174169570571E-005 !mtd9
 C          1.8902722825        0.0124976118       -0.2559729539
 C          1.1707348636       -1.2208952893        0.3048886061
 C         -0.2786051097       -1.2586804008       -0.1650492908
 C         -1.0795223351       -0.0926278747        0.4321494059
 C         -0.1731263109        1.1474822018        0.6131633503
 C          0.9204236006        1.1842904434       -0.4480695826
 N         -2.2464853213        0.1427680251       -0.4043764906
 H          2.3521257543       -0.2305279828       -1.2148930973
 H          2.6908112126        0.3035659367        0.4267779639
 H          1.6898319987       -2.1272024695       -0.0111211613
 H          1.1853638990       -1.1996917852        1.3963425496
 H         -0.3095081358       -1.1929675663       -1.2541727851
 H         -0.7499009130       -2.2004277922        0.1158227791
 H         -1.4643112617       -0.3874590878        1.4158209793
 H         -0.7863828434        2.0513731573        0.5562350726
 H          0.2893604311        1.1292191713        1.6014604446
 H          0.4603382807        1.1291837584       -1.4373808646
 H          1.4644238045        2.1295577270       -0.3968275160
 H         -1.9582652315        0.4751774250       -1.3192332174
 H         -2.8430812506        0.8524130829        0.0074408695
  20
  -22.3991873300000       1.055976540132276E-005 !mtd7
 C          1.8698745937        0.0328494205       -0.3001368062
 C          1.1907774035       -1.2072134697        0.2933031604
 C         -0.2698792255       -1.2724932208       -0.1357115486
 C         -1.0737020527       -0.1054280459        0.4586019998
 C         -0.1815519365        1.1323863991        0.6390730609
 C          0.8756212478        1.1894433463       -0.4559471415
 N         -2.1561151273        0.2164012099       -0.4643651073
 H          2.2946121766       -0.2090757673       -1.2760419796
 H          2.6944584734        0.3349782602        0.3487500075
 H          1.7147809868       -2.1085157783       -0.0297088306
 H          1.2370528075       -1.1763308958        1.3839603469
 H         -0.3307884556       -1.2107623410       -1.2232149240
 H         -0.7130876353       -2.2219732928        0.1720630173
 H         -1.4560166865       -0.4035084070        1.4544237803
 H         -0.8058113591        2.0269974898        0.6040386146
 H          0.3041479692        1.1014885741        1.6158893699
 H          0.3680786233        1.1255565371       -1.4186420559
 H          1.4058108747        2.1426385746       -0.4204124379
 H         -2.7520502581        0.9405509468       -0.0771964842
 H         -2.7310507483       -0.6030469468       -0.6293553530
  20
  -22.3991871900000       1.055820111668906E-005 !mtd4
 C          1.8703532708       -0.0379644100       -0.2995855276
 C          0.8689623286       -1.1846232693       -0.4801776940
 C         -0.1880568151       -1.1441471746        0.6157048270
 C         -1.0728871354        0.1023471436        0.4608116327
 C         -0.2625892026        1.2759391080       -0.1112819159
 C          1.1976655033        1.1946868640        0.3163346018
 N         -2.1582929443       -0.1944923974       -0.4669813495
 H          2.2992478823        0.2200429156       -1.2695332178
 H          2.6912057180       -0.3581888496        0.3453733797
 H          0.3621962553       -1.0971339303       -1.4413999656
 H          1.3932906150       -2.1415733845       -0.4648009339
 H         -0.8176395577       -2.0340687846        0.5621123903
 H          0.2976680429       -1.1363805120        1.5929550635
 H         -1.4522495226        0.3829361878        1.4627777039
 H         -0.3238546911        1.2352853002       -1.1997055227
 H         -0.7005704102        2.2217614952        0.2145381299
 H          1.7264997955        2.0989048638        0.0097303255
 H          1.2436560656        1.1437016616        1.4062556172
 H         -2.7279329158        0.6317645560       -0.6155870761
 H         -2.7586187151       -0.9219191644       -0.0930654173
  20
  -22.3991870200000       1.055630193974753E-005 !mtd1
 C          1.8714703364        0.0329122708       -0.2967909773
 C          1.1903498255       -1.2077455803        0.2931943379
 C         -0.2695913459       -1.2711921481       -0.1384778221
 C         -1.0732049169       -0.1053379856        0.4581155757
 C         -0.1820772088        1.1337058806        0.6362640852
 C          0.8772901509        1.1889484397       -0.4567413267
 N         -2.1590335763        0.2149880178       -0.4613777082
 H          2.3007659536       -0.2084046399       -1.2708495715
 H          2.6929133078        0.3354357718        0.3559102615
 H          1.7143252569       -2.1089174920       -0.0302136890
 H          1.2344189428       -1.1785911687        1.3840010901
 H         -0.3289686523       -1.2066070177       -1.2258877804
 H         -0.7139231418       -2.2211583382        0.1661864495
 H         -1.4520161265       -0.4042038415        1.4550400951
 H         -0.8069985813        2.0276745317        0.5974644523
 H          0.3019990028        1.1060912195        1.6139981026
 H          0.3720817300        1.1234923466       -1.4205551070
 H          1.4073092386        2.1422675422       -0.4215789891
 H         -2.7320624962       -0.6058977737       -0.6261781262
 H         -2.7560544809        0.9366426563       -0.0711744023
  20
  -22.3991844500000       1.052763243730747E-005 !mtd10
 C          1.8738003582       -0.0384624461       -0.2920925791
 C          0.8725618691       -1.1835855971       -0.4817605460
 C         -0.1893471310       -1.1469824789        0.6096189092
 C         -1.0717630111        0.1022873436        0.4596942692
 C         -0.2619955317        1.2733803112       -0.1174861127
 C          1.1968247126        1.1960919462        0.3157520859
 N         -2.1645497873       -0.1915523325       -0.4603914409
 H          2.3133810238        0.2175584052       -1.2577025573
 H          2.6870923692       -0.3596037152        0.3618706602
 H          0.3707798143       -1.0925723355       -1.4452917261
 H          1.3963558720       -2.1408841762       -0.4673349067
 H         -0.8203436740       -2.0353146642        0.5477460544
 H          0.2926766987       -1.1462476132        1.5887664639
 H         -1.4433398243        0.3847598098        1.4641306719
 H         -0.3202896562        1.2266411438       -1.2058389563
 H         -0.7023172506        2.2204389587        0.2017774753
 H          1.7256606208        2.0998283143        0.0077679785
 H          1.2382546706        1.1494762782        1.4060547749
 H         -2.7659600141       -0.9152267184       -0.0807628689
 H         -2.7311495597        0.6372392670       -0.6068250020
