  21
        -25.38100951
 C         -2.5616246564       -0.8308415726       -0.9672299202
 C         -2.4829729717        0.4825498713       -0.1992790586
 C         -1.5079623603        0.4041522238        0.9838767109
 C         -0.0953529347        0.1939511014        0.5192162471
 C          0.5019511003       -1.0586132142        0.5780192488
 C          1.7927655924       -1.2500345400        0.1160393289
 C          2.5057204764       -0.1881222646       -0.4132464213
 C          1.9208574614        1.0658723206       -0.4754116574
 C          0.6311064146        1.2532531159       -0.0125342577
 H         -2.8959826753       -1.6344764383       -0.3148545811
 H         -3.2623101493       -0.7459532653       -1.7942849330
 H         -1.5857748652       -1.0965695431       -1.3679215527
 H         -3.4743374323        0.7414079467        0.1782222614
 H         -2.1623821601        1.2782853471       -0.8749756324
 H         -1.8078203392       -0.4148296302        1.6401598653
 H         -1.5679520146        1.3364008872        1.5498916986
 H         -0.0483331375       -1.8922207077        0.9905130372
 H          2.2431414746       -2.2304736234        0.1693552241
 H          3.5127816944       -0.3358678848       -0.7739646685
 H          2.4727906474        1.8996280070       -0.8843808720
 H          0.1808948682        2.2346646032       -0.0603995898
  21
        -25.38091574
 C         -3.7481664334       -0.1118919293       -0.4110044641
 C         -2.2439971519       -0.1717877558       -0.6452622679
 C         -1.4578348485        0.1613947699        0.6289532940
 C          0.0194341659        0.0962864515        0.3703842993
 C          0.7147354702       -1.0961026913        0.5289876871
 C          2.0683344884       -1.1682401960        0.2513619407
 C          2.7469375646       -0.0459240676       -0.1925610813
 C          2.0636683699        1.1471610969       -0.3563904258
 C          0.7101056776        1.2154984304       -0.0777272602
 H         -4.0429822753       -0.8231061442        0.3573147239
 H         -4.0442557951        0.8835934736       -0.0878848459
 H         -4.2853933118       -0.3508444281       -1.3254656517
 H         -1.9651839972        0.5342511766       -1.4306633902
 H         -1.9638064328       -1.1711462448       -0.9856333203
 H         -1.7302671190       -0.5495795316        1.4114378443
 H         -1.7327927954        1.1630977219        0.9651080422
 H          0.1903056365       -1.9748403553        0.8765507273
 H          2.5956301072       -2.1018104947        0.3823212714
 H          3.8035191501       -0.1004905596       -0.4085384413
 H          2.5872520350        2.0266975547       -0.7013960260
 H          0.1819692184        2.1496430179       -0.2060081816
  21
        -25.37858474
 C         -3.8279252756        0.1738039446       -0.1505529277
 C         -2.3654172120        0.5829836887       -0.2875138521
 C         -1.4365588689       -0.5804746495        0.0505774761
 C          0.0366904752       -0.2653535890        0.0532386989
 C          0.9143904992       -1.2052977013        0.5882343803
 C          2.2779108251       -0.9819168214        0.6069656549
 C          2.7947290733        0.1947836461        0.0897425698
 C          1.9343932833        1.1367858056       -0.4439505324
 C          0.5677447050        0.9085832913       -0.4634771777
 H         -4.0550044629       -0.6576414548       -0.8143147421
 H         -4.0452166970       -0.1334462724        0.8700973746
 H         -4.4815764728        1.0045091484       -0.4050084339
 H         -2.1599061245        1.4197367063        0.3836314382
 H         -2.1847469154        0.9145863894       -1.3117992463
 H         -1.6102779507       -1.3905826011       -0.6652567024
 H         -1.7036502479       -0.9687019037        1.0377216550
 H          0.5176968262       -2.1249607981        0.9951497399
 H          2.9395260753       -1.7250111607        1.0275209334
 H          3.8593241258        0.3745505657        0.1039292227
 H          2.3269191296        2.0576708754       -0.8500514357
 H         -0.0800845946        1.6595174570       -0.8871941523
  21
        -25.37626531
 C         -3.1483862574        1.0957855571       -0.5152773761
 C         -2.4657078690       -0.2687488476       -0.5123712003
 C         -1.5030767227       -0.4566712685        0.6718634227
 C         -0.0473372650       -0.2552382988        0.3439011082
 C          0.9088294877       -1.0721497979        0.9381961960
 C          2.2564993144       -0.9040930718        0.6752496304
 C          2.6752163970        0.0874840232       -0.1952368947
 C          1.7345669220        0.9067913036       -0.7946416927
 C          0.3874630636        0.7382122865       -0.5252903865
 H         -3.7905976620        1.1957403560       -1.3876289646
 H         -3.7621300652        1.2124564521        0.3755451973
 H         -2.4207761327        1.9032852280       -0.5314163192
 H         -1.9227561310       -0.4131972274       -1.4484941104
 H         -3.2401385362       -1.0368967544       -0.4657655878
 H         -1.6197749295       -1.4624535313        1.0800425533
 H         -1.7778412530        0.2430707299        1.4666988187
 H          0.5926446985       -1.8517921367        1.6169839787
 H          2.9811811607       -1.5506554318        1.1481889009
 H          3.7260999229        0.2199791605       -0.4051826031
 H          2.0508998789        1.6837009948       -1.4754024736
 H         -0.3272619737        1.3896049816       -1.0031001013
