  11
        -20.20391366
 C         -1.6748348045        1.1756794700        0.0000161705
 C         -2.3050894515       -0.0613426579        0.0000963579
 C         -1.5144087460       -1.1984999336       -0.0000333689
 N         -0.1925027633       -1.1597152606       -0.0000904814
 C          0.3915121741        0.0187391559       -0.0000671513
 C         -0.2920608814        1.2291662802       -0.0001144985
 Cl         2.1122894913        0.0092389794        0.0000560064
 H         -2.2527831304        2.0880749153        0.0001916927
 H         -3.3805644182       -0.1384323625        0.0004097418
 H         -1.9452761380       -2.1903363220        0.0001285957
 H          0.2438219513        2.1640247174       -0.0002212893
