  13
        -26.89702882
 C          1.8693696668       -1.2347899200       -0.0065811263
 O          0.9376224146       -0.4909973191       -0.8049060663
 S         -0.0000238980        0.4761559348        0.0000263001
 O         -0.7510224707        1.2072995613       -0.9720832066
 O          0.7507855940        1.2073470980        0.9722396045
 O         -0.9372660258       -0.4915473731        0.8048037644
 C         -1.8694421428       -1.2347237937        0.0064701991
 H          2.5809124916       -1.6684130787       -0.7045376510
 H          1.3378049313       -2.0070210175        0.5485551238
 H          2.3579264652       -0.5512558968        0.6863843977
 H         -2.3623399793       -0.5498131114       -0.6820705881
 H         -2.5771571750       -1.6733895505        0.7051108814
 H         -1.3374199104       -2.0029266862       -0.5538156923
  13
        -26.89614791
 C          1.8628433569       -1.2431470366       -0.0111267262
 O          0.9422133486       -0.4826999830       -0.8059976427
 S          0.0003404655        0.4796159608       -0.0000241438
 O         -0.7425885698        1.2093766286       -0.9790785978
 O          0.7449187747        1.2090985780        0.9783061918
 O         -0.9351230799       -0.4903095285        0.8016786685
 C         -1.8728070420       -1.2461754239        0.0166702446
 H          1.3332698788       -2.0649702729        0.4692868562
 H          2.2960518974       -0.5863482414        0.7419676717
 H          2.6196826315       -1.6110871985       -0.6991166342
 H         -2.8702523891       -0.8483137201        0.1956287651
 H         -1.8050781561       -2.2820855388        0.3434533919
 H         -1.6153109691       -1.1461693004       -1.0356918739
  13
        -26.89508819
 C          2.2077001573       -0.6427448167       -0.5129041369
 O          0.7922064393       -0.8699175122       -0.5099036747
 S         -0.0613972657        0.3787960963       -0.0580058057
 O         -0.0466488037        1.3860447221       -1.0724752253
 O          0.3453729717        0.7740420173        1.2604181043
 O         -1.4809950123       -0.2516286537       -0.0446961032
 C         -1.7162798985       -1.2345321121        0.9793355676
 H          2.5067322873       -0.2741453013        0.4681167170
 H          2.4511078602        0.0940445022       -1.2778132716
 H          2.6617937912       -1.6057845105       -0.7322523541
 H         -1.2501165036       -0.8904914306        1.9016314244
 H         -1.2846228176       -2.1830013706        0.6635193303
 H         -2.7959012546       -1.3062323742        1.0841157644
  13
        -26.89453565
 C          1.8324799472       -1.2676508081       -0.0471525166
 O          1.0401838706       -0.3801435988       -0.8521957493
 S         -0.0544242967        0.4820926294       -0.1376624772
 O         -0.3880056659        1.5261846669       -1.0502263496
 O          0.3826546871        0.8362018680        1.1826131351
 O         -1.3163095372       -0.4417238787       -0.0556459103
 C         -1.4478003469       -1.3176593872        1.0754283104
 H          2.8250320544       -1.2820539638       -0.4927715961
 H          1.3905461054       -2.2628642939       -0.0673189146
 H          1.8724953587       -0.8747881483        0.9674527098
 H         -1.0807093945       -2.3075762975        0.8081373871
 H         -2.5089291682       -1.3559318776        1.3128872801
 H         -0.8829855925       -0.8995633121        1.9069786081
  13
        -26.89424162
 C          1.8163924088       -1.2721569169       -0.0126558464
 O          1.1940583931       -0.2606108313       -0.8194304718
 S         -0.0280319004        0.4503037549       -0.1558295140
 O         -0.4552119698        1.4433988311       -1.0893399716
 O          0.2998987126        0.8772834002        1.1743495189
 O         -1.0947391222       -0.7007822052       -0.1064323540
 C         -1.6986887901       -1.0694588319        1.1439832082
 H          1.2134056537       -2.1786265945       -0.0496510822
 H          1.8957552203       -0.9024709311        1.0090631676
 H          2.7990154325       -1.4407244463       -0.4458077575
 H         -2.7488403433       -0.7833478493        1.1131530262
 H         -1.1852509048       -0.5453035221        1.9477694503
 H         -1.5960863431       -2.1481952942        1.2488898133
  13
        -26.89423599
 C          1.4782211514       -1.3622231482       -0.9493675565
 O          1.4481943941       -0.2743954568       -0.0128073047
 S          0.0732283062        0.4559552107        0.1036927056
 O         -0.4364776976        0.7829857814       -1.1972584917
 O          0.2765871439        1.5257843869        1.0282307958
 O         -0.8242926264       -0.6445445596        0.7742754789
 C         -2.0721685680       -1.0200163528        0.1699458521
 H          2.5282897557       -1.5528197146       -1.1560802123
 H          0.9487327183       -1.0587923081       -1.8517929567
 H          1.0046066272       -2.2335787910       -0.4986046295
 H         -2.0929242093       -2.1074193481        0.1232647645
 H         -2.1236628445       -0.5817444515       -0.8249368606
 H         -2.8824655536       -0.6448094613        0.7931164041
  13
        -26.89370106
 C          1.7145859646       -1.2343822426       -0.9805062234
 O          1.4796681046       -0.2545654487        0.0467191507
 S          0.0625207873        0.3809100845        0.0571432063
 O         -0.3381812205        0.7853723767       -1.2602840631
 O          0.0468228342        1.3877144324        1.0723362772
 O         -0.7917262342       -0.8668198160        0.5055334738
 C         -2.2145112278       -0.6613107740        0.5178965243
 H          1.2842230563       -2.1841490211       -0.6665153560
 H          2.7944046127       -1.3047843449       -1.0869890024
 H          1.2465751541       -0.8877403490       -1.9010264823
 H         -2.5745104252       -0.9291688893        1.5093920252
 H         -2.6535396223       -1.3013289946       -0.2460993787
 H         -2.4240208908        0.3848499259        0.3031566599
  13
        -26.89317661
 C          2.0519330419       -1.0167187741       -0.1446396778
 O          0.8297460238       -0.6336705945       -0.7938640151
 S         -0.0737653740        0.4564721029       -0.1062661741
 O         -0.2849299786        1.5314066898       -1.0231492341
 O          0.4512939356        0.7731347060        1.1899942860
 O         -1.4475243394       -0.2771025651        0.0165724354
 C         -1.4702374544       -1.3697961008        0.9477137368
 H          2.5977189889       -1.6021600784       -0.8805539641
 H          1.8292381063       -1.6081418576        0.7423207376
 H          2.6082628046       -0.1266805531        0.1413287749
 H         -0.9261782425       -1.0730096122        1.8438116997
 H         -1.0103511252       -2.2420939747        0.4843051857
 H         -2.5181419524       -1.5550862513        1.1696610347
  13
        -26.89051921
 C          2.3950504074       -0.2840656392       -0.6411434576
 O          1.1241568399       -0.8708320525       -0.3083313347
 S         -0.0001458899        0.1753304320       -0.0004426314
 O         -0.3206415198        0.9390695543       -1.1719853459
 O          0.3205084709        0.9368821337        1.1724777775
 O         -1.1246564928       -0.8711498290        0.3055547436
 C         -2.3941360222       -0.2847249666        0.6442392608
 H          2.2803060132        0.3284570850       -1.5351947936
 H          3.0665309487       -1.1209009676       -0.8155981317
 H          2.7315359324        0.3303595307        0.1936941812
 H         -2.7339099806        0.3310874055       -0.1882177602
 H         -2.2756772061        0.3263610484        1.5387975894
 H         -3.0649974460       -1.1217840906        0.8199673231
  13
        -26.89042280
 C          2.3254268578       -0.4009245294       -0.8781843009
 O          1.1860768957       -0.8233127738       -0.1084025154
 S          0.0094972717        0.1979765846        0.0289518590
 O         -0.2254259328        0.8719921296       -1.2157585596
 O          0.1838034083        1.0410289940        1.1766733463
 O         -1.1067915787       -0.8668866638        0.3085982649
 C         -2.3794710020       -0.3018082153        0.6645065503
 H          1.9740804311        0.1417170493       -1.7550006981
 H          2.8458485848       -1.3137302096       -1.1586008839
 H          2.9581665952        0.2398223623       -0.2648016267
 H         -2.2444854886        0.3647234015        1.5160182130
 H         -3.0155611582       -1.1464765765        0.9167689178
 H         -2.7740167137        0.2527925373       -0.1865626019
