! r2scan-3c def2/J RI DEFGRID2 scfconv6 printgap
%output
    printlevel normal
end
* xyz 0 1
C -3.1483862574 1.0957855571 -0.5152773761
C -2.465707869 -0.2687488476 -0.5123712003
C -1.5030767227 -0.4566712685 0.6718634227
C -0.047337265 -0.2552382988 0.3439011082
C 0.9088294877 -1.0721497979 0.938196196
C 2.2564993144 -0.9040930718 0.6752496304
C 2.675216397 0.0874840232 -0.1952368947
C 1.734566922 0.9067913036 -0.7946416927
C 0.3874630636 0.7382122865 -0.5252903865
H -3.790597662 1.195740356 -1.3876289646
H -3.7621300652 1.2124564521 0.3755451973
H -2.4207761327 1.903285228 -0.5314163192
H -1.922756131 -0.4131972274 -1.4484941104
H -3.2401385362 -1.0368967544 -0.4657655878
H -1.6197749295 -1.4624535313 1.0800425533
H -1.777841253 0.2430707299 1.4666988187
H 0.5926446985 -1.8517921367 1.6169839787
H 2.9811811607 -1.5506554318 1.1481889009
H 3.7260999229 0.2199791605 -0.4051826031
H 2.0508998789 1.6837009948 -1.4754024736
H -0.3272619737 1.3896049816 -1.0031001013
*
