! r2scan-3c def2/J RI DEFGRID2 scfconv6 printgap
%output
    printlevel normal
end
%cpcm
    smd true
    smdsolvent "water"
end
* xyz 0 1
C -2.7150206504 0.7111129114 0.7725998231
C -2.1191345463 0.2281621287 -0.54465696
C -0.8921393102 -0.6466595338 -0.3227963385
O 0.1583351232 0.1556110418 0.2374772957
C 1.4163733107 -0.1509661232 -0.0454413339
O 1.7356379829 -1.0851412059 -0.7541374495
C 2.3786587483 0.7880153399 0.6181383502
H -3.5667611709 1.3588257838 0.5857931386
H -3.0460023398 -0.1332709027 1.3720107945
H -1.9713539629 1.2660661195 1.3379571749
H -1.8318690076 1.0843248524 -1.1566832011
H -2.8542116039 -0.3578843081 -1.0965888807
H -1.1092061236 -1.4546254945 0.3829697122
H -0.5311924573 -1.0847184475 -1.259127853
H 2.8821518923 0.2564403475 1.4224395906
H 1.8466087613 1.6434658179 1.019100111
H 3.1314936662 1.0980524082 -0.1008027283
*
