! pbe def2-sv(p) def2/J RI DEFGRID1 loosescf d4 GCP(DFT/SV(P)) printgap
%output
    printlevel normal
end
* xyz 0 1
C 3.5737716126 -0.6716003349 0.0229424998
C 2.2336391148 -0.1907513823 0.487602481
C 1.8642298859 -0.2342434426 1.7574142796
C 1.3176579784 0.3088881274 -0.6088830449
H 1.9396283074 0.6023957769 -1.458356696
C 0.3801616754 -0.8358124365 -1.0523806688
C -1.0488066915 -0.3521468728 -1.3205402685
C -1.5550659929 0.3273503323 -0.0853034486
C -0.7538842454 1.2418258756 0.4902852573
C 0.5350558986 1.569109808 -0.1618076688
C -2.8293033808 -0.0399984499 0.4866800169
O -3.5955967002 -0.878536966 0.0435431581
H 4.1336623185 0.1498316126 -0.4219212438
H 4.1501894288 -1.0814913952 0.8473535246
H 3.4498308359 -1.440824692 -0.7376578918
H 0.8935849861 0.1020931258 2.0816853464
H 2.5147273317 -0.6171807412 2.525166993
H 0.7753483221 -1.3162705749 -1.947022381
H 0.3361469202 -1.5888433069 -0.2625124977
H -1.0495683709 0.3506950281 -2.1571628672
H -1.698774481 -1.1906230413 -1.5737907316
H -1.0425190162 1.7543252757 1.3961775599
H 0.3049076177 2.1471599325 -1.0619423537
H 1.1650011255 2.1819565253 0.4809879919
H -3.0960689175 0.5145518578 1.4070092096
*
