! pbe def2-sv(p) def2/J RI DEFGRID1 loosescf d4 GCP(DFT/SV(P)) printgap
%output
    printlevel normal
end
* xyz 0 1
C 0.5443185944 1.4334198014 1.0463598112
C 1.8919335205 1.6634706253 1.213683168
C 2.8454320008 0.8862969745 0.554446596
C 2.4021627289 -0.1428244243 -0.2986323507
C 1.0346227769 -0.3556474538 -0.4627961893
C 0.0943085042 0.4166839633 0.2019043653
C -1.3414579722 0.1635508723 0.0033547117
C -1.8507058833 -0.0976738162 -1.2690862373
C -3.1954923921 -0.338401685 -1.478743267
C -4.048130605 -0.3220376444 -0.3913294514
C -3.5992284841 -0.0761865453 0.8916742233
C -2.2493082045 0.1640437952 1.060047017
F -1.811609426 0.3815629018 2.327635367
F -5.3725584579 -0.5563910622 -0.5813763451
C 3.3659791511 -1.0003794358 -1.0109956244
O 4.5738333233 -0.9760145522 -0.8716080642
O 2.7851870459 -1.8487398179 -1.8601096805
O 4.1587651517 1.1034562857 0.7080565261
H -0.1659265359 2.0578949679 1.5650880352
H 2.2197809249 2.4586004024 1.8662200043
H 0.7168000445 -1.1599776047 -1.1062835872
H -1.1744468382 -0.0939828987 -2.1080777616
H -3.5846090222 -0.5341460695 -2.4638221626
H -4.271194786 -0.0751002405 1.7333514874
H 3.4451521088 -2.4064014742 -2.3136128066
H 4.3245084597 1.8397029583 1.3209733606
*
