  14
        -19.32249147
 C          2.4552996170       -0.0000403465       -0.0056789692
 C          0.9595295901       -0.0001643860        0.0086883350
 C          0.2357418134       -1.1877996721        0.0048844090
 C         -1.1481250311       -1.1308859987       -0.0016706487
 N         -1.8326391071        0.0001364473       -0.0045490837
 C         -1.1478454465        1.1310419158       -0.0015094369
 C          0.2359559731        1.1876416452        0.0048359451
 H          2.8122298346        0.0067068686       -1.0362180508
 H          2.8479927232        0.8836547127        0.4920436626
 H          2.8482792218       -0.8897344044        0.4809550292
 H          0.7445364599       -2.1403800025        0.0093982924
 H         -1.7424072387       -2.0356121835       -0.0027611607
 H         -1.7420192672        2.0358855040       -0.0026980267
 H          0.7449827367        2.1400482199        0.0086968553
