  14
  -19.3224914700000       0.166770414260308      !md1
 C          2.4552996170       -0.0000403465       -0.0056789692
 C          0.9595295901       -0.0001643860        0.0086883350
 C          0.2357418134       -1.1877996721        0.0048844090
 C         -1.1481250311       -1.1308859987       -0.0016706487
 N         -1.8326391071        0.0001364473       -0.0045490837
 C         -1.1478454465        1.1310419158       -0.0015094369
 C          0.2359559731        1.1876416452        0.0048359451
 H          2.8122298346        0.0067068686       -1.0362180508
 H          2.8479927232        0.8836547127        0.4920436626
 H          2.8482792218       -0.8897344044        0.4809550292
 H          0.7445364599       -2.1403800025        0.0093982924
 H         -1.7424072387       -2.0356121835       -0.0027611607
 H         -1.7420192672        2.0358855040       -0.0026980267
 H          0.7449827367        2.1400482199        0.0086968553
  14
  -19.3224914600000       0.166768649513579      !gc
 C          2.4553941632        0.0000009858        0.0093494006
 C          0.9595764984       -0.0002133988       -0.0076470820
 C          0.2357398575       -1.1878148499       -0.0048534735
 C         -1.1481755460       -1.1308822850        0.0000694903
 N         -1.8326933899        0.0001371264        0.0022138170
 C         -1.1478879012        1.1310522361        0.0001403657
 C          0.2359709154        1.1876265611       -0.0048205555
 H          2.8106795541        0.0097606799        1.0404440850
 H          2.8491792372       -0.8910224528       -0.4741228273
 H          2.8488662936        0.8821968926       -0.4903838363
 H          0.7444226609       -2.1403981848       -0.0079576972
 H         -1.7424981279       -2.0356614546        0.0008984998
 H         -1.7420357754        2.0359416254        0.0008336538
 H          0.7450024484        2.1400270830       -0.0079801955
  14
  -19.3224911900000       0.166721008414528      !md2
 C          2.4553311697        0.0008699560       -0.0057126129
 C          0.9595522776       -0.0009298367        0.0086372648
 C          0.2355413777       -1.1882056108        0.0049268516
 C         -1.1484534604       -1.1308904770       -0.0016102923
 N         -1.8326487998        0.0001986967       -0.0046118142
 C         -1.1475576927        1.1310422938       -0.0015489642
 C          0.2361617424        1.1872380965        0.0049603744
 H          2.8494332437       -0.9121811440        0.4342999428
 H          2.8122948219        0.0627877449       -1.0343805998
 H          2.8468268802        0.8581705602        0.5373228418
 H          0.7438156184       -2.1410242938        0.0090348891
 H         -1.7429742700       -2.0355358700       -0.0029066671
 H         -1.7415128750        2.0360545486       -0.0031662605
 H          0.7456205425        2.1394013240        0.0088569332
  14
  -19.3224911300000       0.166710423351650      !md2
 C          2.4553465765        0.0010015647        0.0090620514
 C          0.9595713371       -0.0010336986       -0.0073299811
 C          0.2355230266       -1.1882572077       -0.0046499762
 C         -1.1485140147       -1.1308912163       -0.0000139021
 N         -1.8326756367        0.0002096873        0.0021543036
 C         -1.1475150877        1.1310402529        0.0000559008
 C          0.2361932876        1.1871719207       -0.0046302656
 H          2.8474174439        0.8550216546       -0.5387671509
 H          2.8107974448        0.0695136176        1.0378371162
 H          2.8502800045       -0.9146362860       -0.4247327831
 H          0.7437342748       -2.1411112997       -0.0079723076
 H         -1.7430226088       -2.0355603012        0.0006133423
 H         -1.7414183800        2.0360811581        0.0006100501
 H          0.7457346697        2.1393175472       -0.0080764528
  14
  -19.3224906000000       0.166616951147207      !gc
 C          2.4553508036        0.0015761924       -0.0055399973
 C          0.9595449783       -0.0014968581        0.0085609787
 C          0.2353745177       -1.1885164845        0.0047849252
 C         -1.1487066111       -1.1309071684       -0.0016701345
 N         -1.8326707004        0.0002562663       -0.0043862790
 C         -1.1473093980        1.1310221989       -0.0016071717
 C          0.2363265360        1.1869159826        0.0048068481
 H          2.8454147196        0.8375764215        0.5708809863
 H          2.8501380399       -0.9272821648        0.3991102544
 H          2.8131506328        0.1048107011       -1.0306209766
 H          0.7433445539       -2.1415000671        0.0084061522
 H         -1.7433594716       -2.0354602651       -0.0028356323
 H         -1.7410873885        2.0361443729       -0.0033487330
 H          0.7461427307        2.1389064251        0.0081144890
  14
  -19.3224894400000       0.166412553312727      !md2
 C          2.4553532669        0.0026128719        0.0083683122
 C          0.9595609876       -0.0023716501       -0.0065820126
 C          0.2351911660       -1.1889814383       -0.0042211991
 C         -1.1490932302       -1.1308839255       -0.0000742392
 N         -1.8326733315        0.0003098208        0.0018540477
 C         -1.1469350438        1.1310468573       -0.0000655378
 C          0.2365216402        1.1864497875       -0.0041663004
 H          2.8518013979       -0.9480386605       -0.3398392848
 H          2.8444403899        0.8030348773       -0.6174617280
 H          2.8123419787        0.1693566515        1.0251815710
 H          0.7424981257       -2.1423470434       -0.0072747987
 H         -1.7438904214       -2.0353517785        0.0001750490
 H         -1.7405611259        2.0362704437        0.0007746752
 H          0.7469360059        2.1381230365       -0.0069897689
