! r2scan-3c def2/J RI DEFGRID2 scfconv6 printgap
%output
    printlevel normal
end
* xyz 0 1
C -2.3982737929 -0.7488955386 -0.109339614
C -1.7412778719 0.5571648517 0.321227142
C -0.4421510127 0.902590765 -0.4126903519
C 0.7965472109 0.0501991801 -0.0540268132
C 2.0598722868 0.8880077921 -0.3091114513
C 0.8794630537 -1.2265613743 -0.9015194197
O 0.7093179521 -0.2760301922 1.3288075564
H -2.4639683172 -0.808513657 -1.1936359162
H -3.4046205329 -0.8084020779 0.2997172886
H -1.8395319523 -1.6044066424 0.2588893739
H -2.4417831206 1.3755512569 0.1378088485
H -1.5385506886 0.5240119921 1.3922020283
H -0.6028885803 0.8415289066 -1.4899013214
H -0.2070141873 1.9406648519 -0.1683541742
H 2.9553237446 0.2913295079 -0.1467932602
H 2.0824699483 1.7393742115 0.3674016096
H 2.0663678249 1.2515686854 -1.3325164465
H 0.8883669304 -0.9721534332 -1.9572762006
H 0.0342969336 -1.8774528971 -0.7051030558
H 1.7939867379 -1.7703053976 -0.6709078504
H 1.4973526722 -0.7760329461 1.5786670569
*
