! r2scan-3c def2/J RI DEFGRID2 scfconv6 printgap
%output
    printlevel normal
end
* xyz 0 1
C -2.410877689 1.0479756903 -0.3264109845
C -1.7996146264 0.0400233458 0.6515520965
C -0.5358331388 -0.524738983 0.0572060028
O -0.4572899047 -1.5822135287 -0.5354282088
O 0.4931820512 0.2901672493 0.2314157066
C 1.7642774005 -0.0934321653 -0.3196133648
C 2.8339435566 0.7881077774 0.295863214
H -2.6340038591 0.565598241 -1.2751912119
H -3.3315629477 1.447521586 0.0877102494
H -1.71889458 1.8671572341 -0.5033480063
H -2.493821843 -0.7802871269 0.8293873763
H -1.5551799931 0.5378309177 1.5888181714
H 1.9306036786 -1.1536273674 -0.1020222014
H 1.7168408241 0.0298418126 -1.4064276983
H 2.6241899221 1.8313466889 0.0796428645
H 2.8564253962 0.6513017356 1.3730332553
H 3.8005917214 0.5226137958 -0.1190584067
*
