! wb97x-v def2-tzvp def2/J RIJCOSX DEFGRID2 scfconv7 GCP(DFT/TZ) printgap
%output
    printlevel normal
end
%cpcm
    smd true
    smdsolvent "water"
end
* xyz 0 1
C -2.792908950814641 -0.27680948427533586 0.00677489123707186
C -1.441433170420598 0.4262907985915536 -0.08015121260816803
C -0.2878242238327715 -0.5542788000865869 0.0744613112126285
C 1.084400692984165 0.05783304779400898 0.017113166398884976
O 1.2549640442375332 1.2739844940966745 0.005115383280838133
C 2.242221728244614 -0.8941990112042508 -0.04178609288894133
H -3.6165194319371836 0.43399918282440686 -0.11133406331621633
H -2.914316592539474 -0.7742385646169081 0.9753443605195382
H -2.8916824732527715 -1.038681398719776 -0.7742083512800702
H -1.37169496887763 1.195839826903526 0.6964913880163542
H -1.3496777846759669 0.9434884281004658 -1.042471267957555
H -0.35032631635247186 -1.0831520465165567 1.0378370146930413
H -0.33158375552807245 -1.3486760936773141 -0.683729318152195
H 3.1766254162644714 -0.3901437520823242 0.2105184203382322
H 2.3121166957571155 -1.2785833676664489 -1.0673031804251043
H 2.0782579103078205 -1.7567101689709446 0.6104030802256969
*
