  14
  -23.3698022500000       0.500018518409370      !mtd2
 C         -1.1955935805       -1.2006372141        0.0091602861
 C          0.1845591190       -1.2030695796        0.0021962082
 C          0.8712198742        0.0000477089       -0.0006058686
 C          0.1845458374        1.2031203129        0.0021395434
 C         -1.1956450262        1.2005683729        0.0091412493
 C         -1.9086123085       -0.0000370483        0.0113317446
 N         -3.2843264726        0.0000375534       -0.0543686485
 Cl         2.6045759423       -0.0000067840       -0.0030713054
 H         -1.7341055477       -2.1370205700        0.0109265350
 H          0.7277070985       -2.1350420045        0.0020962527
 H          0.7275602232        2.1351621669        0.0021364123
 H         -1.7341307224        2.1369630270        0.0109039172
 H         -3.7507056117       -0.8488826159        0.2192977875
 H         -3.7506497549        0.8486254960        0.2206450387
  14
  -23.3698021800000       0.499981481590630      !mtd7
 C         -1.1955936862       -1.2005565288        0.0091286872
 C          0.1845777911       -1.2031573229        0.0023525829
 C          0.8713142170       -0.0000809980       -0.0003384947
 C          0.1845657363        1.2030129392        0.0023140113
 C         -1.1955607026        1.2006198728        0.0090970881
 C         -1.9085365276        0.0000288246        0.0112791134
 N         -3.2844600680       -0.0000692318       -0.0543739859
 Cl         2.6045107166        0.0000885047       -0.0033025129
 H         -1.7342695700       -2.1368571605        0.0109309628
 H          0.7274998686       -2.1352842864        0.0019860411
 H          0.7279027051        2.1349725137        0.0018687630
 H         -1.7340042164        2.1370251403        0.0108627604
 H         -3.7505655896        0.8483538518        0.2216382874
 H         -3.7502272229       -0.8487736329        0.2213272116
