  17
  -22.4943650100000       6.625718714384284E-002 !gc
 C         -2.8852411268       -0.0640318124        0.0012120564
 C         -1.3901139956       -0.0055427690       -0.0003192413
 C         -0.7139176941        1.2121497429       -0.0005500464
 C          0.6668893922        1.2247172718       -0.0005961194
 C          1.3533165606        0.0112191292       -0.0002332593
 N          0.7138500118       -1.1487333386       -0.0006126580
 C         -0.6075708686       -1.1525631140       -0.0007305997
 C          2.8496031712       -0.0376078869        0.0011918372
 H         -3.2316828706       -1.0943473402       -0.0094913095
 H         -3.2825963036        0.4289527072        0.8879428870
 H         -3.2858361501        0.4489083724       -0.8725380201
 H         -1.2714246614        2.1391027750       -0.0007389504
 H          1.2125804964        2.1567738733       -0.0008731350
 H         -1.0655819971       -2.1344597871       -0.0012005029
 H          3.2435083009        0.4574070123        0.8875156355
 H          3.1782659515       -1.0723905681       -0.0067421650
 H          3.2464215180        0.4726174638       -0.8750580242
  17
  -22.4943647800000       6.624106311311602E-002 !gc
 C         -2.8852312489       -0.0641110906        0.0011021986
 C         -1.3901153687       -0.0054817427       -0.0010293388
 C         -0.7139240998        1.2121795402       -0.0005856044
 C          0.6669091022        1.2247226104        0.0000855947
 C          1.3533183348        0.0112431712        0.0003531345
 N          0.7138257232       -1.1487223150        0.0000313881
 C         -0.6075700362       -1.1525312366       -0.0006364251
 C          2.8496056356       -0.0376446291        0.0001459517
 H         -3.2881517640        0.4819511863       -0.8510782438
 H         -3.2316978563       -1.0933460309       -0.0472284185
 H         -3.2802812302        0.3943508636        0.9073404762
 H         -1.2713692991        2.1391720933       -0.0010763224
 H          1.2125817628        2.1567899578        0.0001593726
 H         -1.0656273906       -2.1344077026       -0.0012210631
 H          3.2443834821        0.4580949351       -0.8853796767
 H          3.2456218398        0.4718255638        0.8772060511
 H          3.1782119502       -1.0724492888        0.0075685603
  17
  -22.4943646700000       6.623335300707762E-002 !mtd2
 C         -2.8852389603       -0.0641027599        0.0020920276
 C         -1.3901131312       -0.0054868879       -0.0011061622
 C         -0.7139195462        1.2121797000       -0.0010116476
 C          0.6669044981        1.2247236911       -0.0006033681
 C          1.3533163672        0.0112323508       -0.0001137453
 N          0.7138280018       -1.1487271498       -0.0006775671
 C         -0.6075761811       -1.1525345136       -0.0012086972
 C          2.8496159368       -0.0376317128        0.0014428742
 H         -3.2317770474       -1.0932283048       -0.0483526508
 H         -3.2794228799        0.3921372619        0.9098577534
 H         -3.2889736307        0.4840525001       -0.8483550123
 H         -1.2713839437        2.1391590404       -0.0015442141
 H          1.2125948958        2.1567802600       -0.0008417366
 H         -1.0656271258       -2.1344128643       -0.0021038612
 H          3.1782623894       -1.0724049554       -0.0097603021
 H          3.2466668407        0.4755509306       -0.8729766313
 H          3.2433400823        0.4543762299        0.8895550742
  17
  -22.4943645300000       6.622354144286090E-002 !mtd6
 C         -2.8852449220       -0.0640570417       -0.0002886028
 C         -1.3901120728       -0.0055188987        0.0002415162
 C         -0.7139299507        1.2121532463        0.0001511203
 C          0.6668981578        1.2247183612        0.0001167878
 C          1.3533252236        0.0112479143        0.0003179190
 N          0.7138452062       -1.1487241940        0.0002289229
 C         -0.6075526419       -1.1525503721        0.0000572425
 C          2.8495975484       -0.0376411316       -0.0003504717
 H         -3.2855384987        0.4551759380        0.8698713780
 H         -3.2829952114        0.4224914088       -0.8904369998
 H         -3.2316778799       -1.0942861450        0.0178300946
 H         -1.2713936253        2.1391314319        0.0003420629
 H          1.2125481525        2.1567984117        0.0002471357
 H         -1.0655864733       -2.1344338141        0.0002221628
 H          3.1782325576       -1.0721321080        0.0244871908
 H          3.2430909815        0.4419381327       -0.8953375042
 H          3.2468515430        0.4876169356        0.8666674335
  17
  -22.4943643500000       6.621092871051656E-002 !mtd12
 C         -2.8852329102       -0.0641192662        0.0005036693
 C         -1.3901097686       -0.0054776795       -0.0010003016
 C         -0.7139245722        1.2121776350       -0.0003587844
 C          0.6669140101        1.2247276815        0.0005681994
 C          1.3533246275        0.0112574498        0.0007847334
 N          0.7138260861       -1.1487159850        0.0005417654
 C         -0.6075638723       -1.1525281092       -0.0003285603
 C          2.8495963045       -0.0376608700       -0.0007694837
 H         -3.2316557285       -1.0935548965       -0.0439220155
 H         -3.2809805543        0.3980948451        0.9045381291
 H         -3.2875577489        0.4784152720       -0.8542371602
 H         -1.2713675168        2.1391749190       -0.0007124158
 H          1.2125651083        2.1568105160        0.0008084530
 H         -1.0656243353       -2.1343965930       -0.0006129898
 H          3.2424927277        0.4418943838       -0.8960302397
 H          3.2474329783        0.4876146088        0.8659588099
 H          3.1782244784       -1.0721620494        0.0238369681
  17
  -22.4943642200000       6.620182100875859E-002 !md4
 C         -2.8852358286       -0.0642692091        0.0033737709
 C         -1.3901304017       -0.0053585364       -0.0019153669
 C         -0.7139259524        1.2122321669       -0.0016682955
 C          0.6669525990        1.2247335159       -0.0007761278
 C          1.3533268952        0.0112895964        0.0001848486
 N          0.7137831338       -1.1487005508       -0.0008337914
 C         -0.6075648773       -1.1524630770       -0.0020055480
 C          2.8496136762       -0.0377139661        0.0019495364
 H         -3.2762665704        0.3610789371        0.9274985653
 H         -3.2920161455        0.5120060177       -0.8266300702
 H         -3.2318435106       -1.0912765463       -0.0794467014
 H         -1.2712551489        2.1392968871       -0.0024643348
 H          1.2125884170        2.1568295756       -0.0009699379
 H         -1.0657200372       -2.1342921514       -0.0033496418
 H          3.2440214023        0.4661919880        0.8829828274
 H          3.1781195870       -1.0725725360        0.0038318068
 H          3.2461135067        0.4635366794       -0.8796504667
  17
  -22.4943638700000       6.617730649977747E-002 !md3
 C         -2.8852020625       -0.0643441900        0.0034847857
 C         -1.3901117930       -0.0053031272       -0.0017627730
 C         -0.7139441409        1.2123309573       -0.0016337228
 C          0.6669153738        1.2247194249       -0.0011240781
 C          1.3533172416        0.0112837408       -0.0001862219
 N          0.7138014705       -1.1487454868       -0.0011262333
 C         -0.6075423989       -1.1523977270       -0.0020733375
 C          2.8495836791       -0.0377475155        0.0024616608
 H         -3.2920852736        0.5124832035       -0.8260701405
 H         -3.2317065710       -1.0913251383       -0.0800721376
 H         -3.2762273039        0.3602993736        0.9279425186
 H         -1.2712967914        2.1393680358       -0.0027104724
 H          1.2127396251        2.1567114118       -0.0014760126
 H         -1.0658205612       -2.1341737688       -0.0034835086
 H          3.2421898602        0.4476699003        0.8947123646
 H          3.1781492675       -1.0724340300       -0.0155813808
 H          3.2477852770        0.4817390351       -0.8676751369
  17
  -22.4943633200000       6.613880203944894E-002 !md1
 C         -2.8852318297       -0.0643510257       -0.0026001882
 C         -1.3901305382       -0.0053058637        0.0019805455
 C         -0.7139069151        1.2122727657        0.0013556244
 C          0.6669712810        1.2247486525        0.0003005272
 C          1.3533264796        0.0112871806       -0.0000739344
 N          0.7137635587       -1.1486894460        0.0004972748
 C         -0.6075860217       -1.1524283812        0.0013906452
 C          2.8496109212       -0.0377262326       -0.0011813552
 H         -3.2758484201        0.3428429612       -0.9351078451
 H         -3.2318253928       -1.0896253479        0.0995674423
 H         -3.2924373142        0.5279057963        0.8157754285
 H         -1.2712329915        2.1393330100        0.0024138812
 H          1.2126487692        2.1568163712        0.0005408876
 H         -1.0657404578       -2.1342561619        0.0025190050
 H          3.1781561292       -1.0723521220        0.0205764453
 H          3.2431302177        0.4446472320       -0.8946754314
 H          3.2469572282        0.4847774042        0.8675146608
  17
  -22.4943585300000       6.580440896277649E-002 !md2
 C         -2.8851320666       -0.0652640651       -0.0054489416
 C         -1.3901079937       -0.0046598775        0.0043959322
 C         -0.7137475016        1.2126446427        0.0028111909
 C          0.6672284921        1.2249217694        0.0001559764
 C          1.3532659371        0.0113631239       -0.0012980310
 N          0.7135146812       -1.1485624506        0.0002435983
 C         -0.6077425817       -1.1521191190        0.0031628045
 C          2.8495360813       -0.0379447067       -0.0014667040
 H         -3.3011291565        0.6166939046        0.7343914621
 H         -3.2658954416        0.2302459857       -0.9834238513
 H         -3.2325578342       -1.0730651817        0.2080095395
 H         -1.2708678025        2.1398428645        0.0048229116
 H          1.2131865972        2.1568082951        0.0004240686
 H         -1.0661908173       -2.1337668214        0.0059010358
 H          3.2468269675        0.4936217055       -0.8646439019
 H          3.2430852498        0.4351258252        0.8970751982
 H          3.1778652931       -1.0724813718       -0.0334962101
  17
  -22.4943365900000       6.429423997685786E-002 !gc
 C         -2.8849601327       -0.0692039492        0.0094671826
 C         -1.3903157146       -0.0017843026       -0.0070862463
 C         -0.7134294296        1.2142639170       -0.0048002249
 C          0.6681906804        1.2252903872       -0.0008001601
 C          1.3533504493        0.0118910722        0.0018628213
 N          0.7124691020       -1.1481054501       -0.0008708114
 C         -0.6081581300       -1.1504286063       -0.0056055337
 C          2.8495981417       -0.0390832852        0.0032643239
 H         -3.2478718198       -0.0366572359        1.0376131649
 H         -3.3157793752        0.7742935068       -0.5261747613
 H         -3.2348353141       -0.9943630135       -0.4427089144
 H         -1.2687171128        2.1425675215       -0.0082170909
 H          1.2144343881        2.1570229760       -0.0009919641
 H         -1.0681776401       -2.1313576730       -0.0099098016
 H          3.2441303908        0.4267992861       -0.8984588100
 H          3.2473409503        0.4980292885        0.8626050667
 H          3.1767040487       -1.0735353578        0.0424112992
  17
  -22.4942952500000       6.154227099945998E-002 !gc
 C         -2.8848669501       -0.0747692950        0.0069783554
 C         -1.3904828241        0.0022674904       -0.0049171023
 C         -0.7129048748        1.2165196377       -0.0034612420
 C          0.6696332075        1.2259069845       -0.0007921921
 C          1.3534237988        0.0126361331        0.0015023687
 N          0.7110344531       -1.1474582135       -0.0006366932
 C         -0.6087192978       -1.1481092383       -0.0042687107
 C          2.8496076885       -0.0406974412        0.0025329285
 H         -3.2368474113       -0.8008250343       -0.7236155782
 H         -3.2357407756       -0.3930392193        0.9888988173
 H         -3.3248278088        0.8941957428       -0.2171899940
 H         -1.2658388114        2.1462927092       -0.0050658721
 H          1.2163504285        2.1573383545       -0.0006388159
 H         -1.0711517594       -2.1278976457       -0.0071504828
 H          3.2494436977        0.5105111741        0.8520112674
 H          3.1750750727       -1.0750278308        0.0582925501
 H          3.2438421133        0.4087815508       -0.9077883590
  17
  -22.4942848500000       6.086869758911111E-002 !gc
 C         -2.8848625015       -0.0756470924       -0.0072510294
 C         -1.3905186960        0.0029271357        0.0028871610
 C         -0.7128476703        1.2168596171        0.0034119596
 C          0.6698859029        1.2260066068        0.0029808929
 C          1.3534607503        0.0128119720        0.0013948154
 N          0.7107957525       -1.1473399981        0.0032351994
 C         -0.6087672080       -1.1477454389        0.0041220768
 C          2.8495956447       -0.0409896714       -0.0063625045
 H         -3.2382547522       -0.7271799426        0.7903369692
 H         -3.3258223411        0.9099339430        0.1221424857
 H         -3.2332315975       -0.4893749350       -0.9534505810
 H         -1.2653581225        2.1468929690        0.0047030366
 H          1.2165929297        2.1574425879        0.0039721174
 H         -1.0716459488       -2.1273262095        0.0064950355
 H          3.2560356411        0.5264275001        0.8290314419
 H          3.1753026437       -1.0742245520        0.0661167551
 H          3.2369590468        0.3905083011       -0.9284086224
  17
  -22.4939803900000       4.410358379053429E-002 !gc
 C         -2.8858508406       -0.0659694536       -0.0056079022
 C         -1.3908603326       -0.0040600407        0.0023830074
 C         -0.7161904137        1.2126026661        0.0026830368
 C          0.6664047108        1.2271273665        0.0020986630
 C          1.3545977895        0.0169092105        0.0007396351
 N          0.7138470033       -1.1451647990        0.0022426470
 C         -0.6053991546       -1.1508609228        0.0032480659
 C          2.8502772067       -0.0445749813       -0.0045471243
 H         -3.2745628494        0.3356352895       -0.9413552977
 H         -3.2308746184       -1.0913934160        0.1005415349
 H         -3.2964884661        0.5296370555        0.8085368959
 H         -1.2735000028        2.1396750439        0.0040115342
 H          1.2064223049        2.1624100004        0.0035330919
 H         -1.0624573456       -2.1332946599        0.0046897454
 H          3.2834891157        0.9507702550        0.0414702576
 H          3.1977594292       -0.6300985742        0.8440622800
 H          3.1937473309       -0.5441320030       -0.9085415703
  17
  -22.4939781000000       4.399683845557058E-002 !gc
 C         -2.8857987040       -0.0666432476       -0.0051785372
 C         -1.3908559947       -0.0036109346        0.0033703388
 C         -0.7161040748        1.2129365689        0.0025865880
 C          0.6665168632        1.2272123513        0.0009802039
 C          1.3545835249        0.0168922649       -0.0001230377
 N          0.7137339697       -1.1451001455        0.0011769383
 C         -0.6054953800       -1.1505584768        0.0029284373
 C          2.8502351020       -0.0447494766       -0.0027844606
 H         -3.2306437695       -1.0844263717        0.1592938349
 H         -3.3000210508        0.5760655868        0.7701460552
 H         -3.2710607951        0.2777735435       -0.9650515191
 H         -1.2732528590        2.1401046279        0.0044066399
 H          1.2067315368        2.1623730442        0.0015364875
 H         -1.0627179417       -2.1329063570        0.0048792219
 H          3.1947620369       -0.5679361933       -0.8927706936
 H          3.2834386919        0.9514363699        0.0184989831
 H          3.1966499272       -0.6078108255        0.8614987447
  17
  -22.4939738300000       4.379848755520638E-002 !md3
 C         -2.8854756184       -0.0708538530       -0.0125072730
 C         -1.3910585468       -0.0005634499        0.0077896952
 C         -0.7156322742        1.2146452694        0.0062591409
 C          0.6676298895        1.2276310501        0.0020067122
 C          1.3545393143        0.0172933242       -0.0023271110
 N          0.7126108261       -1.1447116351        0.0018574361
 C         -0.6060128751       -1.1487918435        0.0076547580
 C          2.8501268976       -0.0457729025       -0.0054862819
 H         -3.3192605394        0.7659688356        0.5309492528
 H         -3.2458828827       -0.0278590266       -1.0411112218
 H         -3.2344351831       -1.0014409790        0.4288334903
 H         -1.2709494367        2.1429737786        0.0094878585
 H          1.2082827545        2.1624745045        0.0027229120
 H         -1.0648977621       -2.1303540029        0.0131825086
 H          3.2838479899        0.9464546361       -0.0949571832
 H          3.2001725379       -0.5074354836        0.9162270205
 H          3.1902772140       -0.6666351659       -0.8315411263
  17
  -22.4939616100000       4.323576927446963E-002 !gc
 C         -2.8853999504       -0.0729709423       -0.0105647653
 C         -1.3910513764        0.0009708670        0.0066882686
 C         -0.7154618354        1.2155727476        0.0052361416
 C          0.6681149969        1.2278646009        0.0022045393
 C          1.3545674879        0.0175465535        0.0000089182
 N          0.7120931120       -1.1444646665        0.0026384246
 C         -0.6062608356       -1.1479610759        0.0059491899
 C          2.8501307688       -0.0464076965       -0.0060285245
 H         -3.3221722060        0.8146590748        0.4418389825
 H         -3.2431346336       -0.1403925861       -1.0386813055
 H         -3.2339564305       -0.9535203556        0.5245197159
 H         -1.2699270708        2.1443842223        0.0086043113
 H          1.2091812290        2.1625177822        0.0031777568
 H         -1.0660580041       -2.1290616696        0.0107201667
 H          3.1963879119       -0.6403279113        0.8371383749
 H          3.1929166050       -0.5376711586       -0.9148143479
 H          3.2848857330        0.9478835087        0.0491956553
  17
  -22.4939492000000       4.267170043061470E-002 !gc
 C         -2.8853197563       -0.0749220145       -0.0108095319
 C         -1.3911219539        0.0024675498        0.0064688567
 C         -0.7153494819        1.2163488885        0.0053419030
 C          0.6686610360        1.2280590830        0.0022641349
 C          1.3546026942        0.0179117789       -0.0004458128
 N          0.7115557372       -1.1442545880        0.0025367758
 C         -0.6063531519       -1.1471508047        0.0062432739
 C          2.8500729831       -0.0470225279       -0.0060663483
 H         -3.2371353358       -0.2706062625       -1.0242955386
 H         -3.2358459603       -0.8841690897        0.6263953610
 H         -3.3257325942        0.8600996249        0.3278951041
 H         -1.2687763930        2.1457939162        0.0083626841
 H          1.2097448354        2.1627035920        0.0029780527
 H         -1.0672368206       -2.1277487415        0.0109910194
 H          3.1976836297       -0.5954022166        0.8672188570
 H          3.1910393033       -0.5864414146       -0.8875978399
 H          3.2852589452        0.9484888074       -0.0029096254
