  24
        -31.81507405
 C         -3.4410666303       -1.1711745170        0.0002991615
 C         -2.0493716690       -0.6164243044        0.0000115373
 C         -1.8669600297        0.7803378977       -0.0001781358
 C         -0.6258527917        1.3580955183       -0.0002007293
 C          0.5276584263        0.5266592271       -0.0000977269
 C          1.8418604518        1.0395554216        0.0001630858
 C          2.9259078373        0.2056691173        0.0002285513
 C          2.7523961106       -1.1852822762       -0.0000095572
 C          1.4933117020       -1.7155163238       -0.0001915727
 C          0.3549956232       -0.8829711308       -0.0001068249
 C         -0.9467093194       -1.4254260873       -0.0000581012
 C         -0.4897498633        2.8516519791       -0.0000108102
 H         -3.4278101369       -2.2581596434        0.0021428136
 H         -3.9851766914       -0.8272974777        0.8795070087
 H         -3.9842961736       -0.8303451055       -0.8806411865
 H         -2.7470171881        1.4094944256       -0.0002229132
 H          1.9942872179        2.1078740299        0.0003929097
 H          3.9256959205        0.6156807724        0.0004828084
 H          3.6190092446       -1.8305179708        0.0001485124
 H          1.3484916928       -2.7868894313       -0.0003393039
 H         -1.0571451493       -2.5010799953       -0.0000650545
 H         -1.4700908448        3.3219224947       -0.0019329613
 H          0.0515023165        3.1888319574        0.8834313851
 H          0.0551226742        3.1888675496       -0.8811031151
  24
        -31.81457989
 C         -3.4350343324       -1.1898608872       -0.0044288071
 C         -2.0528286901       -0.6081949108        0.0020284189
 C         -1.8677398451        0.7854776098        0.0007383220
 C         -0.6236759961        1.3612635518        0.0004116470
 C          0.5273313353        0.5291096338        0.0003001757
 C          1.8431341910        1.0397924508       -0.0010505884
 C          2.9252272251        0.2042749850       -0.0017997015
 C          2.7493991550       -1.1870996185       -0.0006316388
 C          1.4901545553       -1.7154501539        0.0012662141
 C          0.3522585910       -0.8808862385        0.0015091350
 C         -0.9487795771       -1.4196266062        0.0026663477
 C         -0.4864784757        2.8547151958        0.0009197168
 H         -4.1879220731       -0.4110416255        0.0866317203
 H         -3.6113075333       -1.7335100277       -0.9323614218
 H         -3.5575310200       -1.8916391279        0.8193121644
 H         -2.7435873842        1.4204666598        0.0005099009
 H          1.9970521229        2.1078972411       -0.0018877394
 H          3.9258757395        0.6121849140       -0.0034093882
 H          3.6153236594       -1.8332517932       -0.0013233653
 H          1.3433304763       -2.7865357312        0.0021736913
 H         -1.0648057841       -2.4947407419        0.0040529877
 H          0.0568971855        3.1910325313        0.8833202713
 H          0.0567589213        3.1922254362       -0.8811797847
 H         -1.4663778754        3.3259014436        0.0011704697
