  24
  -31.8150740500000       9.280131792554527E-002 !gc
 C         -3.4410666303       -1.1711745170        0.0002991615
 C         -2.0493716690       -0.6164243044        0.0000115373
 C         -1.8669600297        0.7803378977       -0.0001781358
 C         -0.6258527917        1.3580955183       -0.0002007293
 C          0.5276584263        0.5266592271       -0.0000977269
 C          1.8418604518        1.0395554216        0.0001630858
 C          2.9259078373        0.2056691173        0.0002285513
 C          2.7523961106       -1.1852822762       -0.0000095572
 C          1.4933117020       -1.7155163238       -0.0001915727
 C          0.3549956232       -0.8829711308       -0.0001068249
 C         -0.9467093194       -1.4254260873       -0.0000581012
 C         -0.4897498633        2.8516519791       -0.0000108102
 H         -3.4278101369       -2.2581596434        0.0021428136
 H         -3.9851766914       -0.8272974777        0.8795070087
 H         -3.9842961736       -0.8303451055       -0.8806411865
 H         -2.7470171881        1.4094944256       -0.0002229132
 H          1.9942872179        2.1078740299        0.0003929097
 H          3.9256959205        0.6156807724        0.0004828084
 H          3.6190092446       -1.8305179708        0.0001485124
 H          1.3484916928       -2.7868894313       -0.0003393039
 H         -1.0571451493       -2.5010799953       -0.0000650545
 H         -1.4700908448        3.3219224947       -0.0019329613
 H          0.0515023165        3.1888319574        0.8834313851
 H          0.0551226742        3.1888675496       -0.8811031151
  24
  -31.8150740500000       9.280131792554527E-002 !gc
 C         -3.4410579581       -1.1711922065        0.0003620373
 C         -2.0493740277       -0.6164131815        0.0000926320
 C         -1.8669594782        0.7803396127       -0.0000590373
 C         -0.6258417807        1.3580974191       -0.0001076094
 C          0.5276605938        0.5266624494        0.0000128706
 C          1.8418725673        1.0395576641        0.0003383545
 C          2.9259042504        0.2056679371        0.0003838445
 C          2.7523880180       -1.1852954801       -0.0000611474
 C          1.4933111338       -1.7155242648       -0.0003425166
 C          0.3549917243       -0.8829655808       -0.0001811968
 C         -0.9467075835       -1.4254157707       -0.0001393430
 C         -0.4897690675        2.8516591525       -0.0003167190
 H         -3.4277938708       -2.2581781544        0.0035346900
 H         -3.9856620242       -0.8262223581        0.8788238086
 H         -3.9837994684       -0.8314663948       -0.8813134093
 H         -2.7469995778        1.4095208254        0.0000660879
 H          1.9942835298        2.1078793173        0.0005706156
 H          3.9257051878        0.6156495041        0.0007273947
 H          3.6190178967       -1.8305089094       -0.0001175317
 H          1.3484599879       -2.7868923668       -0.0006465708
 H         -1.0571693738       -2.5010675667       -0.0002088691
 H          0.0539119377        3.1890087451        0.8815225603
 H          0.0527341184        3.1887247211       -0.8830040523
 H         -1.4700981090        3.3218957640        0.0002577603
  24
  -31.8150740400000       9.280033591190072E-002 !md1
 C         -3.4411126469       -1.1710278230        0.0006953904
 C         -2.0493572611       -0.6164648737       -0.0001077712
 C         -1.8669579680        0.7803012695       -0.0006316169
 C         -0.6258643633        1.3580687006       -0.0003254130
 C          0.5276599811        0.5266202032       -0.0000559327
 C          1.8418500545        1.0395621806        0.0002937717
 C          2.9259221506        0.2057028992        0.0003533109
 C          2.7524144464       -1.1852454511       -0.0000478587
 C          1.4933317388       -1.7155135986       -0.0003319393
 C          0.3550050037       -0.8830052409       -0.0002177428
 C         -0.9467081449       -1.4254836986       -0.0000373127
 C         -0.4897627828        2.8516169249        0.0001219179
 H         -3.4278822166       -2.2580258856        0.0030518238
 H         -3.9848453668       -0.8267124402        0.8799609180
 H         -3.9845542958       -0.8305233919       -0.8802386615
 H         -2.7470382400        1.4094374702       -0.0008749970
 H          1.9941850969        2.1078916498        0.0006309061
 H          3.9257004320        0.6157372669        0.0006452581
 H          3.6190539711       -1.8304504580       -0.0002110623
 H          1.3486316117       -2.7869012008       -0.0006997601
 H         -1.0571101651       -2.5011399414        0.0002983572
 H          0.0541034927        3.1891455305       -0.8815125385
 H         -1.4701182091        3.3218959708       -0.0006090391
 H          0.0524424791        3.1885398133        0.8830289408
  24
  -31.8150740200000       9.279837191613506E-002 !gc
 C         -3.4410709340       -1.1711681876        0.0000470705
 C         -2.0493697356       -0.6164322426       -0.0001745495
 C         -1.8669558736        0.7803386680       -0.0001876935
 C         -0.6258561380        1.3580977623        0.0000355047
 C          0.5276670531        0.5266592965        0.0000820328
 C          1.8418586766        1.0395536847       -0.0000780118
 C          2.9259106655        0.2056620644       -0.0001216673
 C          2.7524013091       -1.1852834119       -0.0000389622
 C          1.4933085103       -1.7155142996        0.0000918152
 C          0.3550016013       -0.8829682623        0.0001282833
 C         -0.9467148321       -1.4254266382        0.0000585328
 C         -0.4897640262        2.8516561062        0.0001041786
 H         -3.9867453050       -0.8244215377       -0.8770315042
 H         -3.4278312025       -2.2581435079       -0.0052777698
 H         -3.9827177102       -0.8332136374        0.8830953391
 H         -2.7470211742        1.4094858002       -0.0001887358
 H          1.9943102119        2.1078707088       -0.0002736619
 H          3.9256928653        0.6156885061       -0.0002251595
 H          3.6190099040       -1.8305255266        0.0000175840
 H          1.3484935277       -2.7868879807        0.0002203793
 H         -1.0571349428       -2.5010820330        0.0000762361
 H         -1.4700911894        3.3219124914        0.0019612709
 H          0.0549551134        3.1887351660        0.8813965014
 H          0.0516953430        3.1889629396       -0.8831333290
  24
  -31.8150740200000       9.279837191613506E-002 !mtd12
 C         -3.4411139201       -1.1710810734       -0.0000724143
 C         -2.0493635059       -0.6164524043       -0.0001795893
 C         -1.8669548545        0.7803054705       -0.0001704698
 C         -0.6258558629        1.3580806664        0.0000492138
 C          0.5276518714        0.5266304086        0.0001116169
 C          1.8418506374        1.0395514357        0.0000110393
 C          2.9259179996        0.2056961978       -0.0002071962
 C          2.7524125363       -1.1852544157       -0.0001658582
 C          1.4933323062       -1.7155094734        0.0001676125
 C          0.3550001431       -0.8829930446        0.0002454311
 C         -0.9467006667       -1.4254624080        0.0001782412
 C         -0.4897448956        2.8516418035        0.0000991733
 H         -3.9827794319       -0.8334946270        0.8831250269
 H         -3.9867923664       -0.8240109280       -0.8770298057
 H         -3.4278481402       -2.2580355333       -0.0058298544
 H         -2.7470316253        1.4094342510       -0.0003576008
 H          1.9942042762        2.1078772911       -0.0000265585
 H          3.9256907451        0.6157062181       -0.0008413887
 H          3.6190216110       -1.8305024514       -0.0007592973
 H          1.3485523909       -2.7868928952        0.0001178401
 H         -1.0571094763       -2.5011140114        0.0003620250
 H          0.0540908043        3.1888845209       -0.8816695097
 H         -1.4701083999        3.3219433016       -0.0007480231
 H          0.0525402000        3.1888409969        0.8828610966
  24
  -31.8150740100000       9.279738993366488E-002 !md2
 C         -3.4411139761       -1.1710586837       -0.0005310588
 C         -2.0493612652       -0.6164552044        0.0001864005
 C         -1.8669581357        0.7803106021        0.0001081626
 C         -0.6258645298        1.3580716182        0.0001103186
 C          0.5276584345        0.5266329018        0.0000754760
 C          1.8418505463        1.0395531196       -0.0001747247
 C          2.9259220991        0.2056910658       -0.0002663680
 C          2.7524187575       -1.1852540094       -0.0000444557
 C          1.4933356163       -1.7155092754        0.0001978330
 C          0.3550080996       -0.8829933883        0.0002112110
 C         -0.9467037196       -1.4254645525        0.0002910023
 C         -0.4897614168        2.8516253639        0.0000764580
 H         -3.9880214741       -0.8221982975        0.8749729330
 H         -3.9814933877       -0.8352112390       -0.8851658109
 H         -3.4278603440       -2.2579985839        0.0073067696
 H         -2.7470416434        1.4094329695        0.0000792584
 H          1.9942398286        2.1078758268       -0.0003128597
 H          3.9257021802        0.6157217818       -0.0004928104
 H          3.6190288021       -1.8304954842       -0.0001226682
 H          1.3485633687       -2.7868897923        0.0003338749
 H         -1.0571001258       -2.5011195907        0.0004149788
 H         -1.4701202812        3.3218962069        0.0010250046
 H          0.0541343136        3.1888099878        0.8818188886
 H          0.0524145834        3.1888553128       -0.8827206413
  24
  -31.8150740100000       9.279738993366488E-002 !mtd5
 C         -3.4411224713       -1.1710499276       -0.0004232199
 C         -2.0493669858       -0.6164589253       -0.0002054386
 C         -1.8669411594        0.7802970418       -0.0000262056
 C         -0.6258529298        1.3580775689        0.0001726420
 C          0.5276650625        0.5266294859       -0.0000486493
 C          1.8418780751        1.0395474817       -0.0005888930
 C          2.9259376316        0.2056987413       -0.0005229464
 C          2.7524115570       -1.1852612656        0.0001590129
 C          1.4933342055       -1.7155091741        0.0005107353
 C          0.3550007683       -0.8829838548        0.0002771282
 C         -0.9467076096       -1.4254723775        0.0002092003
 C         -0.4897988125        2.8516375581        0.0004895063
 H         -3.9828767089       -0.8335232526        0.8827019216
 H         -3.9867450630       -0.8239650050       -0.8774010310
 H         -3.4278544485       -2.2579674037       -0.0061898264
 H         -2.7470064484        1.4094484895       -0.0003336090
 H          1.9941860338        2.1078886743       -0.0010035850
 H          3.9257320763        0.6156884844       -0.0009875609
 H          3.6190189597       -1.8305081511        0.0003075823
 H          1.3485895041       -2.7868949181        0.0009269990
 H         -1.0570013345       -2.5011405903        0.0002837342
 H          0.0546119444        3.1885410910        0.8820285703
 H          0.0518659883        3.1891775302       -0.8825171458
 H         -1.4701559725        3.3219008387        0.0021497220
  24
  -31.8150739800000       9.279444404895011E-002 !mtd12
 C         -3.4411172502       -1.1710207556        0.0000625380
 C         -2.0493501804       -0.6164843534       -0.0002337286
 C         -1.8669418786        0.7803104600       -0.0001759170
 C         -0.6258837420        1.3580783183        0.0000383802
 C          0.5276687973        0.5266300664        0.0000700755
 C          1.8418253511        1.0395439723       -0.0001258077
 C          2.9259290776        0.2056768463       -0.0001393270
 C          2.7524363765       -1.1852392549       -0.0000088573
 C          1.4933270703       -1.7154950694        0.0001072083
 C          0.3550206780       -0.8829986472        0.0000974030
 C         -0.9467150885       -1.4254852671        0.0000463703
 C         -0.4897682311        2.8516281537        0.0001208052
 H         -3.9878962735       -0.8219494658       -0.8754062612
 H         -3.4279874294       -2.2579383058       -0.0080112917
 H         -3.9816153267       -0.8353979212        0.8847040656
 H         -2.7470663801        1.4093743976       -0.0005168451
 H          1.9942908206        2.1078594242       -0.0003410102
 H          3.9256785029        0.6157785674       -0.0001129357
 H          3.6190064252       -1.8305320193        0.0003000868
 H          1.3486256010       -2.7868896318        0.0004497276
 H         -1.0570357597       -2.5011465724        0.0002243017
 H          0.0543238456        3.1886807867        0.8817931361
 H          0.0522301735        3.1889751892       -0.8827342070
 H         -1.4701139768        3.3219252852        0.0013298055
  24
  -31.8150739500000       9.279149825740461E-002 !mtd10
 C         -3.4411147971       -1.1710597557       -0.0007112740
 C         -2.0493638573       -0.6164474986        0.0001861032
 C         -1.8669657547        0.7803076557       -0.0003159019
 C         -0.6258703271        1.3580562880        0.0001241726
 C          0.5276602887        0.5266440656        0.0004403620
 C          1.8418344295        1.0395585408        0.0003611215
 C          2.9259168143        0.2056852975       -0.0002604971
 C          2.7524179462       -1.1852323442       -0.0007339417
 C          1.4933313267       -1.7154822107       -0.0000159448
 C          0.3549971933       -0.8829987677        0.0006079260
 C         -0.9467085169       -1.4254650732        0.0009370103
 C         -0.4897184288        2.8515875496       -0.0001225275
 H         -3.9826870489       -0.8321404250       -0.8834336060
 H         -3.4278881455       -2.2580314100        0.0034822820
 H         -3.9868639278       -0.8252964256        0.8767305437
 H         -2.7470304713        1.4094531270       -0.0008785899
 H          1.9942730743        2.1078652604        0.0003113779
 H          3.9256825323        0.6157862778       -0.0010187489
 H          3.6189696594       -1.8305244336       -0.0017181462
 H          1.3486010800       -2.7868762722        0.0000547319
 H         -1.0571238592       -2.5011094196        0.0013019077
 H          0.0515667840        3.1887721147       -0.8836243847
 H         -1.4700888927        3.3219381722        0.0018636179
 H          0.0552041773        3.1887926062        0.8810110015
  24
  -31.8145798900000       5.501155634960907E-002 !gc
 C         -3.4350343324       -1.1898608872       -0.0044288071
 C         -2.0528286901       -0.6081949108        0.0020284189
 C         -1.8677398451        0.7854776098        0.0007383220
 C         -0.6236759961        1.3612635518        0.0004116470
 C          0.5273313353        0.5291096338        0.0003001757
 C          1.8431341910        1.0397924508       -0.0010505884
 C          2.9252272251        0.2042749850       -0.0017997015
 C          2.7493991550       -1.1870996185       -0.0006316388
 C          1.4901545553       -1.7154501539        0.0012662141
 C          0.3522585910       -0.8808862385        0.0015091350
 C         -0.9487795771       -1.4196266062        0.0026663477
 C         -0.4864784757        2.8547151958        0.0009197168
 H         -4.1879220731       -0.4110416255        0.0866317203
 H         -3.6113075333       -1.7335100277       -0.9323614218
 H         -3.5575310200       -1.8916391279        0.8193121644
 H         -2.7435873842        1.4204666598        0.0005099009
 H          1.9970521229        2.1078972411       -0.0018877394
 H          3.9258757395        0.6121849140       -0.0034093882
 H          3.6153236594       -1.8332517932       -0.0013233653
 H          1.3433304763       -2.7865357312        0.0021736913
 H         -1.0648057841       -2.4947407419        0.0040529877
 H          0.0568971855        3.1910325313        0.8833202713
 H          0.0567589213        3.1922254362       -0.8811797847
 H         -1.4663778754        3.3259014436        0.0011704697
  24
  -31.8145791100000       5.496616898611652E-002 !gc
 C         -3.4350964964       -1.1895698434        0.0042658434
 C         -2.0527567005       -0.6082967048       -0.0019333719
 C         -1.8677370503        0.7853998930       -0.0006433925
 C         -0.6237536743        1.3612175505       -0.0004149876
 C          0.5273582303        0.5290861842       -0.0002848456
 C          1.8430755713        1.0398098544        0.0009603724
 C          2.9252200589        0.2042676932        0.0017159895
 C          2.7494461539       -1.1870496856        0.0006739754
 C          1.4901725245       -1.7154579148       -0.0011645564
 C          0.3523238620       -0.8809194237       -0.0014244386
 C         -0.9487586766       -1.4197039842       -0.0026574908
 C         -0.4865160430        2.8546610593       -0.0009358305
 H         -3.5588687004       -1.8882609652       -0.8219409287
 H         -3.6104643362       -1.7365069869        0.9304256153
 H         -4.1877745426       -0.4101103174       -0.0831661106
 H         -2.7437191106        1.4202245098       -0.0002285573
 H          1.9971021424        2.1078936253        0.0017200756
 H          3.9258217022        0.6122924234        0.0033204392
 H          3.6153358067       -1.8332575180        0.0014147844
 H          1.3434802962       -2.7865565925       -0.0020915064
 H         -1.0645774414       -2.4948405907       -0.0040532058
 H         -1.4663823796        3.3258962689       -0.0001226906
 H          0.0577326897        3.1919017365        0.8805918603
 H          0.0559056252        3.1911517410       -0.8839101876
  24
  -31.8145769700000       5.484183689532848E-002 !gc
 C         -3.4350395241       -1.1896638623       -0.0037373047
 C         -2.0527682448       -0.6082427880        0.0016041503
 C         -1.8677807366        0.7854174901        0.0005447261
 C         -0.6237467101        1.3612302344        0.0003804514
 C          0.5273368755        0.5291067510        0.0001478301
 C          1.8430798554        1.0398030841       -0.0011471689
 C          2.9252111281        0.2042546691       -0.0016097832
 C          2.7494285853       -1.1870809195       -0.0003787682
 C          1.4901652492       -1.7154572786        0.0011978899
 C          0.3523081737       -0.8809004382        0.0012415546
 C         -0.9487367686       -1.4196537129        0.0022793479
 C         -0.4864876504        2.8546640623        0.0010198688
 H         -4.1880622231       -0.4094143204        0.0731490387
 H         -3.6071538772       -1.7463225631       -0.9246346894
 H         -3.5616549749       -1.8796380521        0.8293809289
 H         -2.7437289821        1.4202891910        0.0003570782
 H          1.9971214365        2.1078868362       -0.0021826361
 H          3.9258200332        0.6122534848       -0.0031122992
 H          3.6153373340       -1.8332662815       -0.0007464724
 H          1.3433916172       -2.7865481557        0.0021839461
 H         -1.0646684004       -2.4947797701        0.0035576383
 H          0.0559031896        3.1920568353       -0.8815935121
 H         -1.4663502253        3.3259695602        0.0023220335
 H          0.0577265262        3.1909519206        0.8829336880
