! wb97x-v def2-tzvp def2/J RIJCOSX DEFGRID2 scfconv7 GCP(DFT/TZ) printgap
%output
    printlevel normal
end
%cpcm
    smd true
    smdsolvent "water"
end
* xyz 0 1
C -2.558377444206844 -0.5428645580760764 0.35718991617904333
C -1.8221330532399853 0.6975817047077006 -0.14498941835125964
C -0.3911718415485527 0.4211209811764702 -0.6084206588039882
C 0.5280621228249032 -0.03733121530571988 0.5388035441547968
C 1.9028346280386206 -0.21577693888775615 0.10659524974764144
C 3.0375770543857152 -0.34951148075136224 -0.2846127375316443
H -2.5578079518202688 -1.3307494682803336 -0.40440788095179175
H -3.6005324889352495 -0.30752907343832403 0.595157179696386
H -2.1005757273466372 -0.9518597378976024 1.2633672334125003
H -2.376559406392291 1.1284048811767813 -0.9868399632722846
H -1.8041441257642306 1.4628224469918245 0.6417002203397709
H -0.39539842153340365 -0.3483686872582274 -1.3896084672385625
H 0.03301677982826955 1.3287135441406979 -1.0514065090332687
H 0.1663632703995264 -0.9811511947601514 0.9622962647991934
H 0.49870904755897205 0.7034208323357514 1.3479898541975295
H 4.0422300685452885 -0.4731316030039734 -0.6226310771551999
*
