! r2scan-3c def2/J RI DEFGRID2 scfconv6 printgap
%output
    printlevel normal
end
* xyz 0 1
C -2.4709400326 0.0010630266 1.2926371535
O -1.0612836838 -0.0004080408 0.9638783315
C -0.7440893132 -0.000562621 -0.3146695965
C 0.7722110019 4.42993e-05 -0.535555949
Cl 1.4468991835 1.4555818543 0.2046623044
Cl 1.4483523522 -1.4542931261 0.2056795403
F -1.2859623365 -1.0727282265 -0.995847277
F -1.2871978002 1.0701352153 -0.9970080398
H -2.4925992656 -0.0072968094 2.377027553
H -2.9474613226 -0.8902206655 0.8852709866
H -2.9420468723 0.9013801367 0.8991118678
H 1.0014306407 -0.0003307321 -1.6036447453
*
