! pbe def2-sv(p) def2/J RI DEFGRID1 loosescf d4 GCP(DFT/SV(P)) printgap
%output
    printlevel normal
end
* xyz 0 1
C -4.3793609669 0.4687097208 0.0006024663
O -3.4257668916 -0.5813242127 -0.0001337424
C -2.1103453861 -0.2771189228 -3.72774e-05
C -1.2334845866 -1.3700970241 -0.0011505021
C 0.1265621091 -1.176878531 -0.0011673994
C 0.6498977644 0.1196263423 -0.0002448855
C -0.2237595976 1.2054143899 0.0008546263
C -1.5902491251 1.0177279618 0.0010681325
C 2.0964380161 0.373769827 -0.0006146259
O 2.6025969314 1.4841719309 -0.0021700364
O 2.8288936631 -0.7436541112 0.0014652469
C 4.2474128617 -0.5879491041 0.0013363387
H -5.34725769 -0.0267920059 -0.0003131816
H -4.2815812933 1.0886011485 -0.8932974481
H -4.2822807368 1.0866734316 0.8959162886
H -1.6578315015 -2.3610026338 -0.0021079534
H 0.798691686 -2.0194455511 -0.002247897
H 0.1941931898 2.200827308 0.0017388191
H -2.2395675669 1.8773585178 0.0020735791
H 4.651590823 -1.5951914353 0.015700962
H 4.562291115 -0.0252979246 0.881445519
H 4.5646221989 -0.0500818461 -0.8933065352
*
