! r2scan-3c def2/J RI DEFGRID2 scfconv6 printgap
%output
    printlevel normal
end
%cpcm
    smd true
    smdsolvent "water"
end
* xyz 0 1
C -2.5616246564 -0.8308415726 -0.9672299202
C -2.4829729717 0.4825498713 -0.1992790586
C -1.5079623603 0.4041522238 0.9838767109
C -0.0953529347 0.1939511014 0.5192162471
C 0.5019511003 -1.0586132142 0.5780192488
C 1.7927655924 -1.25003454 0.1160393289
C 2.5057204764 -0.1881222646 -0.4132464213
C 1.9208574614 1.0658723206 -0.4754116574
C 0.6311064146 1.2532531159 -0.0125342577
H -2.8959826753 -1.6344764383 -0.3148545811
H -3.2623101493 -0.7459532653 -1.794284933
H -1.5857748652 -1.0965695431 -1.3679215527
H -3.4743374323 0.7414079467 0.1782222614
H -2.1623821601 1.2782853471 -0.8749756324
H -1.8078203392 -0.4148296302 1.6401598653
H -1.5679520146 1.3364008872 1.5498916986
H -0.0483331375 -1.8922207077 0.9905130372
H 2.2431414746 -2.2304736234 0.1693552241
H 3.5127816944 -0.3358678848 -0.7739646685
H 2.4727906474 1.899628007 -0.884380872
H 0.1808948682 2.2346646032 -0.0603995898
*
