  22
        -32.35081962
 C         -3.2932911520       -0.7944909176        0.3441859858
 C         -3.1790522390        0.5758238387        0.5003592236
 C         -2.0072558905        1.2201062703        0.1423049557
 C         -0.9432821528        0.5004622160       -0.3817457204
 C         -1.0644349686       -0.8749145997       -0.5376290142
 C         -2.2328824514       -1.5189876984       -0.1742269412
 C          0.3412507134        1.1926741584       -0.7748772131
 N          1.4909403123        0.5119925347       -0.2405542563
 C          1.8111985162        0.3950880201        1.0832028994
 C          2.9388391140       -0.3716629215        1.1315175817
 N          3.3114394680       -0.7288718273       -0.1249660060
 C          2.4275542341       -0.1914623728       -0.9180977653
 H         -4.2057670775       -1.2974967866        0.6273881335
 H         -4.0016553122        1.1457221292        0.9063672986
 H         -1.9205179969        2.2900133835        0.2699546827
 H         -0.2365189208       -1.4423292145       -0.9385209632
 H         -2.3159385745       -2.5885904480       -0.2966249534
 H          0.4373036884        1.2077566903       -1.8661686502
 H          0.3311167041        2.2280467778       -0.4163448864
 H          1.2221954283        0.8540268913        1.8505169117
 H          3.5047747102       -0.6869885721        1.9848097088
 H          2.4305648158       -0.2768120383       -1.9871974825
