  22
        -32.35081962
 C         -3.2932911520       -0.7944909176        0.3441859858
 C         -3.1790522390        0.5758238387        0.5003592236
 C         -2.0072558905        1.2201062703        0.1423049557
 C         -0.9432821528        0.5004622160       -0.3817457204
 C         -1.0644349686       -0.8749145997       -0.5376290142
 C         -2.2328824514       -1.5189876984       -0.1742269412
 C          0.3412507134        1.1926741584       -0.7748772131
 N          1.4909403123        0.5119925347       -0.2405542563
 C          1.8111985162        0.3950880201        1.0832028994
 C          2.9388391140       -0.3716629215        1.1315175817
 N          3.3114394680       -0.7288718273       -0.1249660060
 C          2.4275542341       -0.1914623728       -0.9180977653
 H         -4.2057670775       -1.2974967866        0.6273881335
 H         -4.0016553122        1.1457221292        0.9063672986
 H         -1.9205179969        2.2900133835        0.2699546827
 H         -0.2365189208       -1.4423292145       -0.9385209632
 H         -2.3159385745       -2.5885904480       -0.2966249534
 H          0.4373036884        1.2077566903       -1.8661686502
 H          0.3311167041        2.2280467778       -0.4163448864
 H          1.2221954283        0.8540268913        1.8505169117
 H          3.5047747102       -0.6869885721        1.9848097088
 H          2.4305648158       -0.2768120383       -1.9871974825
  22
        -32.35077690
 C         -3.2699652679       -0.7934882258        0.3820907431
 C         -3.0902904981        0.5535889185        0.6427764401
 C         -1.9281220168        1.1895553649        0.2405762024
 C         -0.9401266335        0.4849165898       -0.4311290434
 C         -1.1258600112       -0.8679101839       -0.6889182729
 C         -2.2847339252       -1.5038450528       -0.2837372956
 C          0.3436156198        1.1570732727       -0.8576049127
 N          1.4841685814        0.5054368082       -0.2666041563
 C          1.7897929889        0.4769404681        1.0653431517
 C          2.9100219809       -0.2937722048        1.1782455358
 N          3.2921588410       -0.7391818367       -0.0466513344
 C          2.4209754237       -0.2504376944       -0.8841411102
 H         -4.1749200377       -1.2901045124        0.6987412089
 H         -3.8539137254        1.1113528129        1.1643938172
 H         -1.7902000889        2.2412705517        0.4490857580
 H         -0.3544741687       -1.4235106744       -1.2031267127
 H         -2.4194212585       -2.5556076163       -0.4876851019
 H          0.4534149777        1.1047899515       -1.9457624449
 H          0.3324775067        2.2111660388       -0.5596184646
 H          1.1973535258        0.9925430160        1.7929832954
 H          3.4644189447       -0.5539555494        2.0573087664
 H          2.4351188556       -0.4083749840       -1.9448299899
  22
        -32.35033637
 C         -3.2761990130       -0.9055259611       -0.2150424634
 C         -3.1409249408        0.3058442341       -0.8705542228
 C         -1.9844275500        1.0512589946       -0.7200665926
 C         -0.9565060372        0.5955827480        0.0928611490
 C         -1.0991575683       -0.6201843715        0.7497750251
 C         -2.2521537582       -1.3677841607        0.5943370716
 C          0.3075074539        1.4066212126        0.2649900519
 N          1.4857002700        0.5892288859        0.1417118851
 C          2.3119529916        0.1755468616        1.1479648351
 C          3.2484419852       -0.6262556774        0.5625473771
 N          3.0110831427       -0.7176434990       -0.7715416145
 C          1.9538616949        0.0126282106       -0.9904788636
 H         -4.1763874386       -1.4892864891       -0.3361256984
 H         -3.9350423328        0.6704071518       -1.5051556856
 H         -1.8808961578        1.9947596947       -1.2372500194
 H         -0.3005087781       -0.9860582021        1.3791816865
 H         -2.3510921375       -2.3132200091        1.1065143188
 H          0.3411204078        2.2035529157       -0.4856369391
 H          0.3176993236        1.8702253734        1.2575891171
 H          2.1718503158        0.4869483869        2.1632960059
 H          4.0740789396       -1.1394471215        1.0128862019
 H          1.4926497579        0.1562058283       -1.9473656639
  22
        -32.35029389
 C         -3.3249590710       -0.8156069872        0.2594573536
 C         -3.2753066457        0.5652265302        0.3463558831
 C         -2.0924433470        1.2343091754        0.0875752228
 C         -0.9492068201        0.5306863265       -0.2672526511
 C         -1.0062292529       -0.8536044837       -0.3564254522
 C         -2.1878881371       -1.5228206357       -0.0907694176
 C          0.3319617581        1.2765677517       -0.5698653543
 N          1.5061746910        0.5325305486       -0.2049728162
 C          2.3387290746       -0.1538580734       -1.0435472073
 C          3.2716690470       -0.7498446298       -0.2454317409
 N          3.0261789644       -0.4510583351        1.0565963116
 C          1.9676138859        0.3093894787        1.0485078501
 H         -4.2467086261       -1.3385927368        0.4658844699
 H         -4.1582518580        1.1233146950        0.6205953079
 H         -2.0560364244        2.3122055715        0.1600974864
 H         -0.1227820433       -1.4133521473       -0.6277862562
 H         -2.2190044675       -2.6000423665       -0.1584922877
 H          0.3831132285        1.4896606058       -1.6439996505
 H          0.3327942570        2.2325122979       -0.0348014702
 H          2.2030029092       -0.1517296142       -2.1060677392
 H          4.1000847758       -1.3699512672       -0.5230269139
 H          1.5012034786        0.7235003374        1.9202795659
  22
        -32.35026267
 C         -3.2666042575       -0.7115604733        0.4908560393
 C         -3.0218297702        0.6397686074        0.6610834747
 C         -1.8578730839        1.2022342058        0.1658377296
 C         -0.9329500973        0.4197146263       -0.5097198183
 C         -1.1836247047       -0.9368915867       -0.6750628650
 C         -2.3442382093       -1.4997388439       -0.1770473981
 C          0.3536374254        1.0145086858       -1.0327293049
 N          1.4931895791        0.4408626350       -0.3616330475
 C          2.3447274357       -0.5095616499       -0.8485398460
 C          3.2194949058       -0.7865607701        0.1617805164
 N          2.9190428144       -0.0364456596        1.2532052717
 C          1.8849282577        0.6800454927        0.9120830667
 H         -4.1733293766       -1.1507601794        0.8791660939
 H         -3.7361716165        1.2582589493        1.1839492527
 H         -1.6692776697        2.2575946104        0.3036154807
 H         -0.4627774427       -1.5544199541       -1.1916005257
 H         -2.5295494484       -2.5551767605       -0.3103998728
 H          0.4533320922        0.8153308565       -2.1043130091
 H          0.3558858653        2.0981436508       -0.8772679554
 H          2.2664899626       -0.8863512344       -1.8481541149
 H          4.0424940727       -1.4724095900        0.1729103586
 H          1.3890255655        1.3855647086        1.5486993494
  22
        -32.35025148
 C         -3.3326292231       -0.8714260585       -0.0944603120
 C         -3.2938165445        0.4304874502       -0.5646921405
 C         -2.1117559531        1.1471396489       -0.5239381767
 C         -0.9569855734        0.5726737653       -0.0079137098
 C         -1.0029964122       -0.7309333469        0.4655048874
 C         -2.1851772843       -1.4496415545        0.4190414115
 C          0.3178647279        1.3873414532        0.0470271004
 N          1.5048744677        0.5791544565        0.0606890528
 C          2.2477330516        0.2294820007        1.1533698997
 C          3.2361148346       -0.5905690282        0.6916516570
 N          3.1117344431       -0.7555881346       -0.6508355792
 C          2.0706064111       -0.0514374096       -0.9959207733
 H         -4.2539928694       -1.4331330442       -0.1302876131
 H         -4.1849571638        0.8879738528       -0.9682661201
 H         -2.0832530151        2.1620667200       -0.8948931690
 H         -0.1131462210       -1.1924011176        0.8684045140
 H         -2.2073429379       -2.4647718329        0.7864435360
 H          0.3551916506        2.0592396357       -0.8175741242
 H          0.3123426577        2.0042371520        0.9535151548
 H          2.0181429601        0.5901277359        2.1354206945
 H          4.0255524631       -1.0684950283        1.2359266766
 H          1.6907134077        0.0357157692       -1.9944849090
  22
        -32.35017791
 C         -3.2161646567       -0.9451343872       -0.2560887050
 C         -2.8067855405       -0.0467349910       -1.2260421331
 C         -1.6798539976        0.7301374765       -1.0209583602
 C         -0.9565190429        0.6202199744        0.1580643938
 C         -1.3717519600       -0.2849924482        1.1263214268
 C         -2.4962381071       -1.0634131393        0.9208365282
 C          0.3018188235        1.4285784773        0.3701504581
 N          1.4683506169        0.6026828938        0.1729120794
 C          2.1943350274       -0.0366467489        1.1372111864
 C          3.1479235454       -0.7563375405        0.4776492736
 N          3.0179004688       -0.5787225754       -0.8624509142
 C          2.0068969007        0.2303208193       -1.0119377503
 H         -4.0940908543       -1.5527555629       -0.4168398045
 H         -3.3638268301        0.0481304599       -2.1462893619
 H         -1.3626109427        1.4292140245       -1.7817327150
 H         -0.8102139826       -0.3817493059        2.0444339906
 H         -2.8108359761       -1.7638463509        1.6801617931
 H          0.3383258195        2.2626881500       -0.3371062398
 H          0.3316940544        1.8272475197        1.3884024159
 H          1.9858054629        0.0825819836        2.1808333283
 H          3.9170921854       -1.3848452722        0.8791086162
 H          1.6342476723        0.5780799908       -1.9548469024
  22
        -32.34912073
 C         -3.2326490912       -0.7324714738       -0.7892650851
 C         -2.7410884466        0.5028271203       -1.1754333160
 C         -1.6263321232        1.0320214451       -0.5494046716
 C         -0.9942700424        0.3317054896        0.4697381814
 C         -1.4927573034       -0.9071677565        0.8520170724
 C         -2.6070219535       -1.4365242685        0.2256928091
 C          0.2398403945        0.8890153943        1.1258061076
 N          1.4425846675        0.4159621787        0.4733241814
 C          2.7181704358        0.6865795076        0.8847867221
 C          3.5426408910        0.0653272099       -0.0070447878
 N          2.8050909983       -0.5751925857       -0.9498714119
 C          1.5593515851       -0.3477496530       -0.6378438587
 H         -4.1011877150       -1.1463922734       -1.2792242529
 H         -3.2248271224        1.0549489796       -1.9673605448
 H         -1.2412063791        1.9941713344       -0.8555636856
 H         -1.0027460792       -1.4600542222        1.6406297840
 H         -2.9864517822       -2.4007539476        0.5294277271
 H          0.2256301807        1.9854215007        1.0846063273
 H          0.2755453297        0.5870153162        2.1796599597
 H          2.9197235025        1.2812964357        1.7523417630
 H          4.6134726191        0.0383634307       -0.0306678408
 H          0.7165552067       -0.7170137082       -1.1867250456
