! r2scan-3c def2/J RI DEFGRID2 scfconv6 printgap
%output
    printlevel normal
end
* xyz 0 1
C 0.0662619747 -0.1098350459 -0.2736287276
H -0.2424529689 0.1583475472 -1.2913315454
C 1.4848313124 0.4129426232 -0.0162047145
F 2.3506669192 -0.0488612128 -0.919836874
F 1.9449545404 0.0789666092 1.1864858535
F 1.518543985 1.7482695663 -0.0928075228
O -0.7550482439 0.4487610431 0.7075575732
C -2.0688697003 0.5926486592 0.4169902617
F -2.6703665453 -0.5860589057 0.1369533246
F -2.2486654496 1.3430910776 -0.6995092479
Cl 0.1164861972 -1.8995643355 -0.1534247789
H -2.5718847748 1.0697481227 1.2680823267
*
