! wb97x-v def2-tzvp def2/J RIJCOSX DEFGRID2 scfconv7 GCP(DFT/TZ) printgap
%output
    printlevel normal
end
* xyz 0 1
C 2.2569752644360745 -0.6342156778227893 -0.9074122569888963
C 1.1871593025670242 -0.32276382237855744 0.12399354909526494
C 1.6097049133183634 0.8102968163533661 1.0491672825784222
O 0.00022369936147630077 3.2770239700738045e-05 -0.6347603899592745
C -1.1872194994872802 0.3226582068854226 0.12328363044682852
C -2.2563866353305047 0.6341733249716688 -0.9087757545028208
C -1.6102986904447119 -0.810549096666533 1.048036471613758
H 1.9285928791326818 -1.433368764116204 -1.5790654615571287
H 2.4842956836363417 0.25489500742098375 -1.5058306109690305
H 3.1749927417264545 -0.9595665302914481 -0.4095303287056718
H 0.9951637884664774 -1.2267549252358445 0.7203793527421124
H 0.888994840132288 0.9806899345622385 1.85397652821924
H 1.7318021894670437 1.7404414509477646 0.48251174985326645
H 2.569751102688034 0.5609559320919526 1.511919966374133
H -0.995656017205102 1.2265809634129903 0.7199139757246004
H -3.1748433461181986 0.9591196866003099 -0.41144225439621845
H -1.9277473690148528 1.433621294481563 -1.5799528414338735
H -2.4830453407251496 -0.2548127598859224 -1.5076284688793913
H -1.7320327492300116 -1.7406196657432385 0.4811807886406936
H -2.570628524514542 -0.5612913519548844 1.5102432594001145
H -0.890068820689692 -0.9810259467015775 1.853254983518428
*
