! pbe def2-sv(p) def2/J RI DEFGRID1 loosescf d4 GCP(DFT/SV(P)) printgap
%output
    printlevel normal
end
* xyz 0 1
C 1.5461870896 -0.8228763148 0.8363636183
C 1.07514088 -0.2796699571 -0.5099953121
C 2.2493462899 0.3014363616 -1.2938252907
C -0.0021590404 0.8029194268 -0.3055477902
C -1.2475074863 0.2312938938 0.3180996265
O -1.5609511561 0.4664352629 1.470646652
C -2.0839890273 -0.6513980832 -0.5640923365
H 2.0139648413 -0.0335787011 1.4208982455
H 0.709558221 -1.2158909136 1.4105765225
H 2.2708067711 -1.6203811055 0.6920634212
H 0.6432696243 -1.1032303078 -1.0869481051
H 3.013759137 -0.4572713161 -1.4405901786
H 2.6920119282 1.1338243547 -0.7519919107
H 1.9255867552 0.6569514382 -2.2686051993
H -0.2640944029 1.2337905749 -1.2727790687
H 0.3939369707 1.5857957978 0.3436717086
H -3.064980055 -0.193352814 -0.6760663463
H -1.6352242412 -0.7955223585 -1.5399335258
H -2.236495882 -1.6105681524 -0.073658253
*
