  31
        -49.33401269
 C         -3.5922921278       -0.0694006195       -1.8849765058
 C         -3.0513520368       -0.5330968965       -0.5322343681
 H         -3.1775756694       -1.6128827292       -0.4184163107
 C         -1.5839997284       -0.1915864116       -0.3783884186
 C         -1.1783899793        1.1564841055       -0.3594775168
 C          0.1413898398        1.4869655083       -0.2380787681
 C          1.1327525385        0.4897290850       -0.1298847432
 C          2.5006246290        0.8108086020       -0.0069403352
 C          3.4416117143       -0.1826201364        0.0998387982
 C          3.0355082791       -1.5379172070        0.0866176463
 C          1.7200516263       -1.8682885381       -0.0309013477
 C          0.7282464345       -0.8688690781       -0.1425825593
 C         -0.6397384618       -1.1785969820       -0.2644102926
 O          4.7842224658        0.0087433655        0.2224179518
 C          5.2720222648        1.3272745312        0.2456612866
 C         -3.7851029927        0.1456124217        0.6045165635
 O         -4.2102871547        1.2689446424        0.5999128644
 O         -3.8826438240       -0.6562303785        1.6731214762
 H         -3.5854741629        1.0155338982       -1.9390209328
 H         -2.9759838259       -0.4679055753       -2.6868491386
 H         -4.6150460136       -0.4131828117       -2.0208426435
 H         -1.9281140084        1.9302000317       -0.4283967572
 H          0.4426591972        2.5247373945       -0.2216511203
 H          2.7753400264        1.8544401210       -0.0002408193
 H          3.8036483224       -2.2903291910        0.1729417505
 H          1.4175895155       -2.9054055518       -0.0397882465
 H         -0.9340103923       -2.2189466332       -0.2697534719
 H          5.0381168906        1.8579352314       -0.6830959968
 H          6.3524879787        1.2417141076        0.3493330741
 H          4.8699176330        1.8887909622        1.0952659690
 H         -4.3127921874       -0.1919611775        2.4088904416
