  31
        -49.33401269
 C         -3.5922921278       -0.0694006195       -1.8849765058
 C         -3.0513520368       -0.5330968965       -0.5322343681
 H         -3.1775756694       -1.6128827292       -0.4184163107
 C         -1.5839997284       -0.1915864116       -0.3783884186
 C         -1.1783899793        1.1564841055       -0.3594775168
 C          0.1413898398        1.4869655083       -0.2380787681
 C          1.1327525385        0.4897290850       -0.1298847432
 C          2.5006246290        0.8108086020       -0.0069403352
 C          3.4416117143       -0.1826201364        0.0998387982
 C          3.0355082791       -1.5379172070        0.0866176463
 C          1.7200516263       -1.8682885381       -0.0309013477
 C          0.7282464345       -0.8688690781       -0.1425825593
 C         -0.6397384618       -1.1785969820       -0.2644102926
 O          4.7842224658        0.0087433655        0.2224179518
 C          5.2720222648        1.3272745312        0.2456612866
 C         -3.7851029927        0.1456124217        0.6045165635
 O         -4.2102871547        1.2689446424        0.5999128644
 O         -3.8826438240       -0.6562303785        1.6731214762
 H         -3.5854741629        1.0155338982       -1.9390209328
 H         -2.9759838259       -0.4679055753       -2.6868491386
 H         -4.6150460136       -0.4131828117       -2.0208426435
 H         -1.9281140084        1.9302000317       -0.4283967572
 H          0.4426591972        2.5247373945       -0.2216511203
 H          2.7753400264        1.8544401210       -0.0002408193
 H          3.8036483224       -2.2903291910        0.1729417505
 H          1.4175895155       -2.9054055518       -0.0397882465
 H         -0.9340103923       -2.2189466332       -0.2697534719
 H          5.0381168906        1.8579352314       -0.6830959968
 H          6.3524879787        1.2417141076        0.3493330741
 H          4.8699176330        1.8887909622        1.0952659690
 H         -4.3127921874       -0.1919611775        2.4088904416
  31
        -49.33382597
 C         -3.5269665923        0.3066133124        1.8174141584
 C         -3.1342568619        0.5355909623        0.3577096595
 H         -3.5700335066        1.4660655555       -0.0151942742
 C         -1.6290105562        0.5937693544        0.1944046629
 C         -1.0145229104        1.7885594004       -0.2198575127
 C          0.3435750039        1.8680468904       -0.3536093167
 C          1.1646769183        0.7541501920       -0.0859856403
 C          2.5678769060        0.8144113805       -0.2189852094
 C          3.3391188776       -0.2895761839        0.0448071006
 C          2.7220061284       -1.4963422755        0.4522514673
 C          1.3699150564       -1.5747823247        0.5869660426
 C          0.5487044360       -0.4554871910        0.3240604123
 C         -0.8508188560       -0.5061071827        0.4554286030
 O          4.6962745227       -0.3478960296       -0.0494200579
 C          5.3892556065        0.8086042777       -0.4478924922
 C         -3.6272535961       -0.5957920495       -0.5179293234
 O         -3.7009235580       -1.7523051913       -0.2023269856
 O         -3.9494967702       -0.1630854495       -1.7445009098
 H         -4.6067296726        0.3666753021        1.9330874886
 H         -3.2007611250       -0.6779859803        2.1401745868
 H         -3.0612562330        1.0585500579        2.4495119376
 H         -1.6299846801        2.6513185125       -0.4311234073
 H          0.8054695578        2.7927784868       -0.6695662998
 H          3.0057224761        1.7497390351       -0.5326470072
 H          3.3619153256       -2.3420137952        0.6495912884
 H          0.9043993340       -2.4984803397        0.8980760225
 H         -1.3095858308       -1.4363490123        0.7575463974
 H          5.2334993882        1.6323023534        0.2564530691
 H          5.0918116098        1.1287609527       -1.4518248835
 H          6.4431486003        0.5351297318       -0.4546323157
 H         -4.2166177416       -0.9068383583       -2.3078020919
  31
        -49.33272907
 C         -3.6216773056       -0.0330497694       -1.8537756937
 C         -3.0468289301       -0.5490406861       -0.5344394387
 H         -3.1503668965       -1.6371850059       -0.4849574100
 C         -1.5805349401       -0.1996418804       -0.3846871715
 C         -1.1706439243        1.1470017657       -0.3759728549
 C          0.1494833670        1.4765432611       -0.2541935941
 C          1.1390317632        0.4795693957       -0.1324568458
 C          2.5070857263        0.7991897793       -0.0077201437
 C          3.4451875491       -0.1954145334        0.1127117682
 C          3.0357954302       -1.5499438605        0.1117492664
 C          1.7202197676       -1.8786703191       -0.0077076272
 C          0.7312116243       -0.8779771914       -0.1334330841
 C         -0.6366062470       -1.1859806553       -0.2581189200
 O          4.7876555779       -0.0063649896        0.2382906530
 C          5.2792581870        1.3108301463        0.2514662859
 C         -3.7687401595        0.0109901264        0.6733583175
 O         -3.9848550234       -0.6056342420        1.6823948588
 O         -4.1255149025        1.2941108856        0.5338109674
 H         -3.5660484730        1.0500509435       -1.9034516369
 H         -3.0565804574       -0.4507621575       -2.6837343925
 H         -4.6627145213       -0.3317852300       -1.9534979118
 H         -1.9146842639        1.9248039242       -0.4596202681
 H          0.4521108305        2.5142217354       -0.2476655810
 H          2.7844433615        1.8422006756       -0.0102561972
 H          3.8019558639       -2.3029895711        0.2091535872
 H          1.4150410173       -2.9148988066       -0.0065996451
 H         -0.9321668791       -2.2257140426       -0.2538309049
 H          4.8741966159        1.8817923355        1.0933252093
 H          5.0522776307        1.8330933733       -0.6837672225
 H          6.3588711729        1.2230908190        0.3620918696
 H         -4.5507606558        1.6098141102        1.3465442818
  31
        -49.33267774
 C         -3.5400615462       -0.1830866172        1.8177708082
 C         -3.1345519842        0.4511196611        0.4872590982
 H         -3.5526471439        1.4595778402        0.4145449647
 C         -1.6290115473        0.5388422246        0.3376307339
 C         -1.0187301962        1.7945216860        0.1678468644
 C          0.3375012724        1.9047158647        0.0394613450
 C          1.1635765865        0.7631209178        0.0690202237
 C          2.5651232970        0.8538826128       -0.0622733354
 C          3.3409435963       -0.2777591790       -0.0329683974
 C          2.7297348133       -1.5438195987        0.1297859065
 C          1.3790173663       -1.6523367539        0.2579297886
 C          0.5533310251       -0.5061058215        0.2325328574
 C         -0.8450785668       -0.5872070965        0.3617311668
 O          4.6970874167       -0.3110884762       -0.1492167321
 C          5.3834921260        0.9040389032       -0.3200837597
 C         -3.6528824321       -0.3224685680       -0.7069391325
 O         -4.0468892290        0.1813756925       -1.7249257332
 O         -3.5990737904       -1.6503294751       -0.5443589214
 H         -3.1730083781       -1.2023548326        1.8872702072
 H         -3.1225054826        0.3955950737        2.6383617543
 H         -4.6233570436       -0.1963036891        1.9143955705
 H         -1.6372945323        2.6798416459        0.1396889409
 H          0.7941261896        2.8758620740       -0.0886124696
 H          2.9981550535        1.8346589079       -0.1859230427
 H          3.3726795373       -2.4098001422        0.1475759348
 H          0.9193612798       -2.6221904909        0.3817805377
 H         -1.2943841205       -1.5629788366        0.4757865650
 H          6.4377450121        0.6413494388       -0.3916231388
 H          5.2340948694        1.5727848894        0.5339214927
 H          5.0740274897        1.4137036553       -1.2383792010
 H         -3.9033910271       -2.0951466149       -1.3509278839
  31
        -49.33243744
 C         -3.6253239108       -0.2056420268       -1.8790993165
 C         -3.0530848304       -0.6031688878       -0.5182158377
 H         -3.1138425284       -1.6855762931       -0.3779924464
 C         -1.6084580773       -0.1708101283       -0.3788020999
 C         -1.2851809988        1.2017542735       -0.3973824691
 C          0.0101050335        1.6163770753       -0.2894531694
 C          1.0623771494        0.6833007456       -0.1572662045
 C          2.4046033825        1.0774278937       -0.0468881482
 C          3.4124492519        0.1467881622        0.0855700911
 C          3.0913135324       -1.2249167343        0.1107866662
 C          1.7889954161       -1.6288173981        0.0044536196
 C          0.7407723698       -0.6993295854       -0.1316070516
 C         -0.6078930374       -1.0951852904       -0.2412047620
 O          4.6801396308        0.6390028885        0.1851172779
 C          5.7510461544       -0.2614607544        0.3259430424
 C         -3.8226658720        0.0572616291        0.6056081116
 O         -4.3208339067        1.1496421692        0.5739353605
 O         -3.8606511556       -0.7196521913        1.6964179950
 H         -2.9893045803       -0.5865421737       -2.6742232999
 H         -4.6264183524       -0.6126581405       -2.0012740524
 H         -3.6830578667        0.8761136889       -1.9596220832
 H         -2.0823938461        1.9245533019       -0.4842472059
 H          0.2503456343        2.6694858055       -0.3013510606
 H          2.6622840796        2.1250689607       -0.0649036191
 H          3.8686521736       -1.9658743260        0.2140636978
 H          1.5509033502       -2.6828516937        0.0246537909
 H         -0.8385995919       -2.1513038461       -0.2175773723
 H          5.6620918836       -0.8562239980        1.2411206033
 H          6.6462860786        0.3556986575        0.3866557955
 H          5.8338444843       -0.9302371870       -0.5372497124
 H         -4.3150049035       -0.2637796758        2.4227641272
  31
        -49.33238277
 C         -3.5367724473        1.5930767670        0.9158010713
 C         -3.1699559595        0.5888783798       -0.1771282313
 H         -3.6557500759        0.8539150655       -1.1197043928
 C         -1.6711095467        0.5305968475       -0.3921438737
 C         -1.1224955077        0.9562930652       -1.6173663519
 C          0.2262473388        0.9320751893       -1.8279177963
 C          1.1078937955        0.4737202940       -0.8250996100
 C          2.4987059320        0.4340878137       -1.0097825545
 C          3.3366569146       -0.0227250764       -0.0158629917
 C          2.7895654140       -0.4588608946        1.2077174099
 C          1.4372635115       -0.4274027995        1.4071381378
 C          0.5585839982        0.0358296591        0.4091370498
 C         -0.8368852672        0.0762365021        0.5961891841
 O          4.6701941539       -0.0182356115       -0.3004591997
 C          5.5759587072       -0.4738764977        0.6740274346
 C         -3.6133775936       -0.8076118773        0.2010046427
 O         -3.6233023923       -1.2695785963        1.3098275647
 O         -3.9710039185       -1.5178872158       -0.8772054046
 H         -3.1560678710        1.2543439859        1.8751834059
 H         -3.1056982854        2.5644909697        0.6870069286
 H         -4.6171140844        1.6941545905        0.9902094515
 H         -1.7856790363        1.3075453845       -2.3949222437
 H          0.6390648591        1.2635771183       -2.7696225591
 H          2.9287361984        0.7644017616       -1.9427288577
 H          3.4326965135       -0.8201759193        1.9949520007
 H          1.0240162640       -0.7635390211        2.3472556374
 H         -1.2443017086       -0.2698487982        1.5350759346
 H          6.5630005962       -0.3770452502        0.2241541633
 H          5.3998714013       -1.5236458293        0.9310230965
 H          5.5339109737        0.1361175402        1.5824390438
 H         -4.2050184224       -2.4252010123       -0.6246089056
  31
        -49.33221110
 C         -3.5465622631       -1.5021238771        1.1278063713
 C         -3.1234549893       -0.0969017845        0.7087140761
 H         -3.5072285058        0.6343902777        1.4268041769
 C         -1.6246152146        0.0963604108        0.5875087066
 C         -1.0971981229        1.3816008318        0.8204720968
 C          0.2413477772        1.6254160992        0.7025205537
 C          1.1352845109        0.5957689287        0.3431989426
 C          2.5219289437        0.8222329908        0.2213989786
 C          3.3651538272       -0.2009290584       -0.1334999614
 C          2.8380602767       -1.4909020215       -0.3786834155
 C          1.5023119786       -1.7289978376       -0.2668089493
 C          0.6089006751       -0.6970254191        0.0971383044
 C         -0.7766982068       -0.9158806151        0.2187189027
 O          4.7150465001       -0.0991666098       -0.2805676133
 C          5.3189695289        1.1510117656       -0.0584653155
 C         -3.6772796822        0.2883778584       -0.6499455286
 O         -4.1318081896        1.3671071085       -0.9231353054
 O         -3.5627922458       -0.6903766921       -1.5551285167
 H         -4.6132816281       -1.5180917823        1.3403890421
 H         -3.3458542934       -2.2214507718        0.3397880916
 H         -3.0074214649       -1.7966901274        2.0250111053
 H         -1.7725944120        2.1804309758        1.0902554603
 H          0.6324024031        2.6162791284        0.8845413055
 H          2.8895589370        1.8181442775        0.4154655142
 H          3.5316708671       -2.2695564284       -0.6548178408
 H          1.1078348203       -2.7169085410       -0.4556081841
 H         -1.1533323085       -1.9058546465        0.0133332812
 H          5.1662779296        1.4931446517        0.9704004683
 H          4.9401526348        1.9084408972       -0.7524459398
 H          6.3830719249        1.0016013760       -0.2341745675
 H         -3.8811416939       -0.3840953006       -2.4184451309
  31
        -49.33128264
 C         -3.6644487237       -0.1912676050       -1.8416963380
 C         -3.0484013834       -0.6279836341       -0.5124796743
 H         -3.0854687418       -1.7182026760       -0.4267589019
 C         -1.6051408848       -0.1854731733       -0.3867923453
 C         -1.2792041167        1.1856555809       -0.4315306568
 C          0.0159457865        1.6021731366       -0.3284184836
 C          1.0675100932        0.6725304127       -0.1724146261
 C          2.4092718852        1.0685094369       -0.0638342180
 C          3.4157407835        0.1401101273        0.0925824087
 C          3.0933575335       -1.2306909559        0.1442108895
 C          1.7914661284       -1.6361094291        0.0396364222
 C          0.7444570562       -0.7088874759       -0.1202790796
 C         -0.6037410073       -1.1060332420       -0.2275333366
 O          4.6831698990        0.6334167547        0.1878515967
 C          5.7526202919       -0.2645503990        0.3545051377
 C         -3.7919711961       -0.0727770723        0.6845174960
 O         -3.9623763737       -0.6686046171        1.7146532766
 O         -4.2240676571        1.1820885823        0.5083440001
 H         -3.0810328013       -0.5997278638       -2.6635457077
 H         -4.6856225520       -0.5570740157       -1.9215165887
 H         -3.6768731956        0.8909813573       -1.9264408245
 H         -2.0719558047        1.9102982074       -0.5407999298
 H          0.2562964597        2.6549575838       -0.3622169558
 H          2.6677766016        2.1154719669       -0.1014891579
 H          3.8696946002       -1.9696938580        0.2669203923
 H          1.5522908369       -2.6891551888        0.0810358114
 H         -0.8345823439       -2.1611732968       -0.1822045853
 H          6.6478996697        0.3532221561        0.4075836438
 H          5.8401367105       -0.9515610222       -0.4937045355
 H          5.6574945040       -0.8395083940        1.2815196316
 H         -4.6573386907        1.5001578648        1.3158633431
  31
        -49.33107409
 C         -3.5366042780       -0.0539041923        1.8362061168
 C         -3.1728080131        0.4441556457        0.4374860626
 H         -3.6508567368        1.4107029454        0.2525112637
 C         -1.6755439919        0.6029674012        0.2640918859
 C         -1.1432103264        1.8670525066       -0.0574608086
 C          0.2013853637        2.0452674753       -0.2114069542
 C          1.0977620334        0.9655921670       -0.0571720437
 C          2.4850118286        1.1136718046       -0.2093732623
 C          3.3370518871        0.0412319387       -0.0580565557
 C          2.8078674274       -1.2268909323        0.2552646234
 C          1.4590092785       -1.3911013471        0.4080399836
 C          0.5662852162       -0.3125044005        0.2592583589
 C         -0.8260916722       -0.4626489649        0.4112107924
 O          4.6655961180        0.2963453575       -0.2272488796
 C          5.5847140377       -0.7591791521       -0.0906749884
 C         -3.6469346241       -0.4921018397       -0.6540819953
 O         -4.0728625511       -0.1345272005       -1.7198640042
 O         -3.5134091673       -1.7869056592       -0.3394944555
 H         -4.6169281029       -0.1216601520        1.9430360054
 H         -3.1074992543       -1.0338904506        2.0206591188
 H         -3.1541226606        0.6410116505        2.5801180204
 H         -1.8170370987        2.7022932545       -0.1821707539
 H          0.5996418775        3.0190534975       -0.4563903478
 H          2.9012581393        2.0796759526       -0.4498785365
 H          3.4619020101       -2.0762658138        0.3767377591
 H          1.0608497939       -2.3667742863        0.6481733687
 H         -1.2146198125       -1.4438708424        0.6423885020
 H          5.5625178043       -1.1875216332        0.9168762897
 H          6.5645569673       -0.3190708119       -0.2700678075
 H          5.4057344712       -1.5494356473       -0.8272374310
 H         -3.7931845171       -2.3388989461       -1.0865063832
  31
        -49.33062214
 C         -3.5043085105       -1.6047292225        1.0653142330
 C         -3.1537584616       -0.1700871595        0.6798015535
 H         -3.5984866551        0.5248400998        1.3986990288
 C         -1.6661835274        0.1116819982        0.6013907562
 C         -1.2172973118        1.4165440034        0.8953876029
 C          0.1049754514        1.7419618294        0.8147607527
 C          1.0647397413        0.7789523523        0.4324568393
 C          2.4326336247        1.0776412359        0.3404584032
 C          3.3472340420        0.1196811192       -0.0406317883
 C          2.9026013852       -1.1831312685       -0.3413497992
 C          1.5731977658       -1.4931024440       -0.2575325175
 C          0.6177764969       -0.5333838662        0.1272112047
 C         -0.7566513161       -0.8356002047        0.2128295535
 O          4.6501040051        0.5175137017       -0.0992093109
 C          5.6292591493       -0.4128928304       -0.4905058399
 C         -3.6934143348        0.2052188784       -0.6872999300
 O         -4.2032411381        1.2597670282       -0.9565416816
 O         -3.4977930490       -0.7498483319       -1.6041668048
 H         -2.9755165204       -1.8809516491        1.9744367633
 H         -4.5740631982       -1.6877465083        1.2445138493
 H         -3.2371796381       -2.2982446608        0.2739298541
 H         -1.9439388068        2.1629651388        1.1816459633
 H          0.4373877894        2.7442837273        1.0419086575
 H          2.7841611688        2.0719041009        0.5687693625
 H          3.6061438816       -1.9449022878       -0.6391675675
 H          1.2405641123       -2.4948246899       -0.4900203606
 H         -1.0724130185       -1.8363960810       -0.0383023583
 H          5.4507829009       -0.7860047866       -1.5044214509
 H          5.6858810764       -1.2573316263        0.2044295488
 H          6.5732654533        0.1298136038       -0.4706841248
 H         -3.8097533682       -0.4468698658       -2.4709863813
  31
        -49.33056944
 C         -3.4865226175       -1.7978386529        0.7461995929
 C         -3.1417473715       -0.3147634064        0.6516587812
 H         -3.5640771936        0.2182652696        1.5094637802
 C         -1.6577147873       -0.0102358615        0.5878620952
 C         -1.2335303893        1.2793858508        0.9747795491
 C          0.0819224647        1.6349351636        0.9199366652
 C          1.0602058577        0.7189164658        0.4735305693
 C          2.4227895858        1.0474242300        0.4104421689
 C          3.3563437691        0.1346328701       -0.0310033925
 C          2.9360734455       -1.1503258551       -0.4276901515
 C          1.6119171926       -1.4885462046       -0.3737127628
 C          0.6381085598       -0.5762198438        0.0745256650
 C         -0.7308216567       -0.9101330042        0.1349432907
 O          4.6524929409        0.5574444980       -0.0507192245
 C          5.6519448943       -0.3307621431       -0.4863893666
 C         -3.7220563756        0.3273000951       -0.5946132081
 O         -4.2447514105        1.4090551781       -0.6287967684
 O         -3.5475635907       -0.4185505212       -1.6918652649
 H         -4.5535789140       -1.9170645415        0.9212226703
 H         -3.2324872098       -2.3158721995       -0.1736797748
 H         -2.9453399784       -2.2505025897        1.5736066024
 H         -1.9757961699        1.9886507346        1.3111849465
 H          0.3952670230        2.6246250356        1.2183470634
 H          2.7554037842        2.0289491501        0.7108546399
 H          3.6541086233       -1.8761133387       -0.7764698438
 H          1.2982898590       -2.4765322554       -0.6798456250
 H         -1.0247680050       -1.8978935570       -0.1843489889
 H          5.4980165013       -0.6343663207       -1.5271843440
 H          5.7072086263       -1.2208699514        0.1490266369
 H          6.5875783811        0.2212565093       -0.4100055984
 H         -3.8863992193        0.0506810515       -2.4700537208
  31
        -49.32770254
 C         -3.9333953103        1.4715349161       -0.4449240226
 C         -3.1524849184        0.1665972958       -0.6408956808
 H         -3.4217719632       -0.2781347453       -1.6069866626
 C         -1.6494349567        0.3650781782       -0.6048397058
 C         -1.0675351506        1.4586687541       -1.2796163883
 C          0.2830543375        1.6538848724       -1.2777076374
 C          1.1458948431        0.7650825707       -0.6012596152
 C          2.5378548950        0.9402602319       -0.5738861076
 C          3.3542164135        0.0487404545        0.0878175411
 C          2.7826707119       -1.0578292918        0.7471490542
 C          1.4280835798       -1.2449734939        0.7307438495
 C          0.5715159999       -0.3485710222        0.0642464941
 C         -0.8269760463       -0.5226014892        0.0391590299
 O          4.6914441241        0.3128630423        0.0526789127
 C          5.5761785892       -0.5651472306        0.7041089077
 C         -3.5856832464       -0.8168965830        0.4279740276
 O         -3.9868256180       -1.9316625325        0.2241572864
 O         -3.4971603510       -0.3052505759        1.6613915964
 H         -4.9953715676        1.2560000864       -0.3454159946
 H         -3.5934454152        1.9780001505        0.4545861923
 H         -3.8036175446        2.1328997626       -1.2962320165
 H         -1.6997853328        2.1496028401       -1.8150613111
 H          0.7129725684        2.4960032743       -1.8005499022
 H          2.9860044646        1.7834251607       -1.0764312545
 H          3.4083601415       -1.7649213968        1.2691018046
 H          0.9975897087       -2.0964817412        1.2382731094
 H         -1.2349888239       -1.3897027997        0.5390315254
 H          5.5269842559       -1.5749816033        0.2835239669
 H          5.3833962975       -0.6086097783        1.7812104890
 H          6.5713119813       -0.1561580113        0.5356173618
 H         -3.7883545762       -0.9581381806        2.3170809663
  31
        -49.32735139
 C         -3.3343398324       -1.4657548858       -1.2662177832
 C         -3.0232918555       -0.7594095682        0.0587368438
 H         -3.1973778272       -1.4512866774        0.8920606240
 C         -1.5841347909       -0.2823988912        0.1288368887
 C         -1.2720612434        1.0326270042        0.5294944572
 C          0.0219208553        1.4631419572        0.6009911882
 C          1.0928905481        0.6029045569        0.2801629764
 C          2.4336253443        1.0140493972        0.3376307350
 C          3.4580363697        0.1461629960        0.0280536639
 C          3.1556571910       -1.1772744332       -0.3511942439
 C          1.8555255169       -1.5959864758       -0.4127904306
 C          0.7894769903       -0.7291390236       -0.1044287728
 C         -0.5560360647       -1.1408339395       -0.1658271983
 O          4.7228126786        0.6478771466        0.1151441638
 C          5.8105341450       -0.1907298400       -0.1870764332
 C         -3.9951532461        0.3882391857        0.2436137545
 O         -4.6344104161        0.5980582959        1.2399362755
 O         -4.0987197771        1.1609986827       -0.8447280865
 H         -4.3886255069       -1.7315124019       -1.3090337681
 H         -3.1042769991       -0.8089158687       -2.1008906071
 H         -2.7503448511       -2.3758613343       -1.3628725792
 H         -2.0686795338        1.7101696331        0.7977563849
 H          0.2431797802        2.4742156575        0.9103405667
 H          2.6763946655        2.0243881178        0.6283483316
 H          3.9467369583       -1.8690158199       -0.5953737525
 H          1.6328849673       -2.6124663590       -0.7050145567
 H         -0.7568223977       -2.1639055270       -0.4482359347
 H          6.7001229842        0.4215538607       -0.0464317731
 H          5.7757512618       -0.5407530776       -1.2241186259
 H          5.8572535058       -1.0520402427        0.4874667943
 H         -4.7347695203        1.8765711244       -0.6884410514
  31
        -49.32559315
 C         -3.5876791898       -0.0214354193       -1.8997790530
 C         -3.0506789581       -0.4867651339       -0.5463956079
 H         -3.2000351864       -1.5716949253       -0.4616449476
 C         -1.5824485146       -0.1762593233       -0.3875950752
 C         -1.1701054729        1.1686345250       -0.2918974187
 C          0.1500116316        1.4867289296       -0.1497554165
 C          1.1376428325        0.4805718262       -0.0949805711
 C          2.5054580660        0.7899477584        0.0496769898
 C          3.4436763734       -0.2113284851        0.1018417946
 C          3.0330699918       -1.5626266069        0.0097527763
 C          1.7172398011       -1.8820508544       -0.1293167875
 C          0.7295630182       -0.8741364061       -0.1863158360
 C         -0.6394132795       -1.1713523598       -0.3279770398
 O          4.7840773110       -0.0323420176        0.2393639868
 C          5.2788187248        1.2807527627        0.3390378732
 C         -3.8495361040        0.1429899268        0.5952766512
 O         -4.8747451290        0.7410856239        0.4568169361
 O         -3.3173111933       -0.0505564811        1.8163698818
 H         -3.4331564449        1.0469669834       -2.0227655170
 H         -3.0779633597       -0.5446511227       -2.7051016726
 H         -4.6544938398       -0.2188809101       -1.9604762946
 H         -1.9177802241        1.9477360637       -0.3247158949
 H          0.4551116865        2.5204928915       -0.0757478142
 H          2.7833804204        1.8304236138        0.1164340921
 H          3.7985835482       -2.3211563669        0.0538920309
 H          1.4117809623       -2.9159452607       -0.1994140507
 H         -0.9357543885       -2.2096718293       -0.3983992738
 H          5.0508945600        1.8641344915       -0.5589069681
 H          6.3583833199        1.1832609444        0.4410952592
 H          4.8767643395        1.7946696679        1.2181572740
 H         -2.4627135682       -0.5039610077        1.7718471694
  31
        -49.32529857
 C         -3.5699442307       -1.4340364657        1.0986479967
 C         -3.1068178112       -0.0323202022        0.6832538130
 H         -3.5103364601        0.6926007211        1.3959931684
 C         -1.6120214168        0.1319784490        0.5974626961
 C         -1.0633591998        1.4093552701        0.8325810996
 C          0.2779323210        1.6340796026        0.7149806255
 C          1.1591351231        0.5947977362        0.3493444857
 C          2.5470407891        0.8054594494        0.2223788628
 C          3.3776567624       -0.2285975066       -0.1335915377
 C          2.8345168877       -1.5132411616       -0.3732127821
 C          1.4967612287       -1.7362990519       -0.2559441549
 C          0.6181001937       -0.6923582392        0.1080177528
 C         -0.7708250677       -0.8931929007        0.2340152993
 O          4.7254362188       -0.1433322253       -0.2861660687
 C          5.3477318806        1.0996209612       -0.0697388335
 C         -3.7531563861        0.2761927581       -0.6741588678
 O         -4.7765630167        0.8844714709       -0.7886848300
 O         -3.1089632815       -0.2239020253       -1.7353082228
 H         -3.3763870460       -2.1699539593        0.3206419425
 H         -3.0573710210       -1.7412725950        2.0074313918
 H         -4.6406322978       -1.4214312507        1.2870195148
 H         -1.7267081916        2.2154982415        1.1102328897
 H          0.6825952209        2.6181633478        0.9021627892
 H          2.9267463238        1.7972861207        0.4129039782
 H          3.5176594743       -2.3006045254       -0.6500071056
 H          1.0912376562       -2.7207453509       -0.4401603609
 H         -1.1464596379       -1.8931131250        0.0643613282
 H          5.2020282716        1.4471111421        0.9581419898
 H          4.9782844709        1.8592433429       -0.7661189744
 H          6.4090172734        0.9339616418       -0.2470393982
 H         -2.2649215122       -0.6327328305       -1.4783451947
  31
        -49.32516593
 C         -3.5438618648        1.0655035869        1.4763205863
 C         -3.1179092847        0.6485411923        0.0676764279
 H         -3.5481466382        1.3580572479       -0.6523974097
 C         -1.6156418264        0.6454456565       -0.0768840878
 C         -0.9686893072        1.6471650414       -0.8246849448
 C          0.3929669273        1.6644097431       -0.9442047095
 C          1.1872892793        0.6771382608       -0.3265242609
 C          2.5930575938        0.6767140419       -0.4398733422
 C          3.3394296017       -0.2989621275        0.1728313859
 C          2.6923292285       -1.3114701246        0.9219317794
 C          1.3372407167       -1.3289993907        1.0434854702
 C          0.5420125716       -0.3375810779        0.4258846081
 C         -0.8597692273       -0.3269163097        0.5339901063
 O          4.6942806791       -0.3994735499        0.1331586524
 C          5.4181030776        0.5662686097       -0.5892229889
 C         -3.7138555861       -0.7143021862       -0.2876532312
 O         -4.6180391847       -1.2287593078        0.3010044769
 O         -3.1662712917       -1.3020866903       -1.3669706066
 H         -3.1021245508        0.4018472188        2.2148649149
 H         -3.2197911071        2.0827833173        1.6815548418
 H         -4.6250399363        1.0062878168        1.5669853075
 H         -1.5632120859        2.4132034330       -1.3028820820
 H          0.8782084476        2.4410902464       -1.5177531170
 H          3.0534091118        1.4628302550       -1.0183449179
 H          3.3128975680       -2.0606471662        1.3876549072
 H          0.8497057226       -2.1042301713        1.6160357187
 H         -1.3418463275       -1.1055540079        1.1090322041
 H          6.4660244118        0.2903877621       -0.4843738730
 H          5.2651374171        1.5703199009       -0.1804409650
 H          5.1464103117        0.5603845579       -1.6497867271
 H         -2.4067447406       -0.8042164267       -1.7037706244
  31
        -49.32451956
 C         -3.8039716763        0.5332520835       -1.6829550441
 C         -3.0505693099       -0.3482940904       -0.6781306685
 H         -3.1738618837       -1.3934341105       -0.9764477994
 C         -1.5804133307       -0.0381628634       -0.5618959238
 C         -1.0925239471        1.2823017552       -0.6534206834
 C          0.2394249308        1.5533690193       -0.4957003218
 C          1.1649407791        0.5251925255       -0.2315856680
 C          2.5408845912        0.7865212845       -0.0650620909
 C          3.4164537568       -0.2398563794        0.1876326712
 C          2.9330759823       -1.5677420495        0.2817559649
 C          1.6095620562       -1.8403094228        0.1235544831
 C          0.6831511081       -0.8054533520       -0.1379170192
 C         -0.6902085879       -1.0533374486       -0.3049960313
 O          4.7575370362       -0.1095686158        0.3646488303
 C          5.3226955604        1.1763038652        0.2888207870
 C         -3.7547147135       -0.1961577880        0.6761074186
 O         -4.6365741658       -0.9198236007        1.0360722074
 O         -3.3467847924        0.8359744233        1.4249359212
 H         -3.8930812110        1.5596052642       -1.3325140709
 H         -3.2866301281        0.5326496417       -2.6397539609
 H         -4.8079525927        0.1417366609       -1.8264978397
 H         -1.7679838414        2.0950785806       -0.8811456976
 H          0.5970127177        2.5701084489       -0.5756322932
 H          2.8741429539        1.8099310423       -0.1430671909
 H          3.6520233303       -2.3463301943        0.4824056659
 H          1.2481044033       -2.8553626913        0.1973645705
 H         -1.0439816361       -2.0718317890       -0.2278097274
 H          6.3895444113        1.0412187110        0.4585339581
 H          4.9145462516        1.8393718877        1.0584459075
 H          5.1667578605        1.6249920275       -0.6975810853
 H         -2.5880044550        1.2917338000        1.0242088198
