! pbe def2-sv(p) def2/J RI DEFGRID1 loosescf d4 GCP(DFT/SV(P)) printgap
%output
    printlevel normal
end
* xyz 0 1
C -1.439989586 0.1114796073 0.6056247769
C 0.0747912875 0.3613420978 0.4849755342
C 0.8089611048 -0.871801536 -0.0742595579
O 2.2112850063 -0.7669930471 0.041827639
O 0.2733892295 1.4973491729 -0.3367504018
O -2.0579791318 -0.3501129776 -0.5698528714
H -1.9186749876 1.0676144988 0.8285161933
H -1.6165103978 -0.5806271679 1.4371751248
H 0.4512563855 0.5605707493 1.4977759931
H 0.5197501154 -1.0180822394 -1.1203006528
H 0.5295545289 -1.7492231727 0.5133032427
H 2.5443891755 -0.1564193291 -0.6298582006
H 1.1532951892 1.8639532439 -0.1777155139
H -1.807959118 -1.2692336511 -0.7328337691
*
