! r2scan-3c def2/J RI DEFGRID2 scfconv6 printgap
%output
    printlevel normal
end
* xyz 0 1
C -2.5337250459 0.0187408907 0.9153713772
C -1.7589282223 0.6137143664 -0.2613444345
C -0.4307534803 -0.0830693794 -0.414649694
O -0.2939665799 -1.2692752423 -0.630632879
O 0.5829775001 0.763006237 -0.2839158008
C 1.923390245 0.2503455604 -0.3737409855
C 2.416102067 -0.2286655754 0.9831890709
H -2.0113164536 0.2073358359 1.8498084567
H -3.5223704396 0.463616215 0.9708988121
H -2.6350957752 -1.0560633718 0.7856503424
H -1.5813038801 1.6781336297 -0.1168903061
H -2.3235693041 0.4578629066 -1.1817439337
H 1.935288242 -0.5682890478 -1.0997407192
H 2.5158986086 1.089977574 -0.7382221747
H 1.8137464065 -1.068464802 1.3225484802
H 3.4496932141 -0.5478624997 0.8986226173
H 2.3463247275 0.5749553127 1.7112800133
*
