  23
  -34.8365524300000       0.238373029261874      !mtd1
 C         -3.6896607731        0.7107873857       -0.1232594553
 C         -2.6049377314        1.3098473966       -0.7404920627
 C         -1.3569175511        0.7155565149       -0.7008698469
 C         -1.1892577743       -0.4903382179       -0.0281442738
 C         -2.2812177344       -1.0998171441        0.5823427942
 C         -3.5241048066       -0.4984484833        0.5315417706
 O         -0.0001308056       -1.1705188783        0.0011070163
 C          1.1891937207       -0.4905654947        0.0292050300
 C          2.2802419938       -1.0996216940       -0.5832967225
 C          3.5232351903       -0.4983487566       -0.5337729372
 C          3.6897628770        0.7103468175        0.1217733687
 C          2.6059566659        1.3089535254        0.7410650044
 C          1.3578560674        0.7147504163        0.7027177243
 H         -4.6604691882        1.1814410160       -0.1573838817
 H         -2.7287798550        2.2463201609       -1.2641350787
 H         -0.5148536544        1.1766544232       -1.1965867627
 H         -2.1352698094       -2.0425137596        1.0863943755
 H         -4.3668693578       -0.9754002445        1.0094152738
 H          2.1335183505       -2.0418767659       -1.0879520020
 H          4.3652767155       -0.9748929062       -1.0133241635
 H          4.6606296245        1.1809591787        0.1548394974
 H          2.7306159834        2.2449636920        1.2653413173
 H          0.5164883525        1.1754419667        1.1999950206
  23
  -34.8365524100000       0.238367984414435      !mtd5
 C         -3.6773195392       -0.7099926415       -0.3268284357
 C         -3.4333466791        0.5000677591       -0.9550250922
 C         -2.1934438197        1.1012161836       -0.8535098529
 C         -1.1838838477        0.4906766059       -0.1155775930
 C         -1.4322092126       -0.7159842970        0.5303713839
 C         -2.6757713165       -1.3100564613        0.4170835231
 O          0.0001415146        1.1705151820        0.0006360701
 C          1.1839855320        0.4902369552        0.1160744317
 C          1.4325397781       -0.7149622174       -0.5324406247
 C          2.6759685174       -1.3095054047       -0.4197123749
 C          3.6771223461       -0.7112851930        0.3261360667
 C          3.4329674795        0.4974782489        0.9567894795
 C          2.1932440801        1.0990127742        0.8559043024
 H         -4.6450844397       -1.1805528015       -0.4115041959
 H         -4.2117032295        0.9778908038       -1.5311398551
 H         -1.9871524481        2.0445256473       -1.3348052869
 H         -0.6566930503       -1.1777943570        1.1242146297
 H         -2.8625806549       -2.2471445866        0.9205724008
 H          0.6573612340       -1.1753478226       -1.1278764329
 H          2.8628520705       -2.2454581956       -0.9252822695
 H          4.6447310316       -1.1821642155        0.4105572631
 H          4.2110327857        0.9737187155        1.5346675387
 H          1.9867382818        2.0412341702        1.3392555750
  23
  -34.8365524000000       0.238365462029857      !mtd5
 C         -3.6896599254        0.7108904186       -0.1217730929
 C         -3.5241191651       -0.4998739303        0.5301641833
 C         -2.2812266167       -1.1013309247        0.5796246233
 C         -1.1892648905       -0.4904246205       -0.0293977661
 C         -1.3569579506        0.7169502902       -0.6994516307
 C         -2.6049360497        1.3113624497       -0.7376231608
 O         -0.0000435363       -1.1705155344       -0.0013811131
 C          1.1892158244       -0.4905690573        0.0283395918
 C          2.2806808140       -1.0990664706       -0.5839863332
 C          3.5235984275       -0.4977224176       -0.5333278925
 C          3.6896939453        0.7104521838        0.1232555547
 C          2.6055392207        1.3083568304        0.7426201473
 C          1.3574794156        0.7140935289        0.7031129964
 H         -4.6604798736        1.1815814380       -0.1548522620
 H         -4.3669026557       -0.9780306905        1.0067991566
 H         -2.1353220883       -2.0451759094        1.0815161591
 H         -0.5149355893        1.1791298034       -1.1942124750
 H         -2.7288306005        2.2489426461       -1.2592357339
 H          2.1343333942       -2.0409506655       -1.0894294974
 H          4.3660082466       -0.9739240578       -1.0126313455
 H          4.6604597337        1.1812466886        0.1570423350
 H          2.7298655079        2.2439472453        1.2677066432
 H          0.5159820054        1.1740863365        1.2006636274
  23
  -34.8365522800000       0.238335195498582      !mtd2
 C         -3.6418747253        0.1567597372       -0.9185787479
 C         -2.5800963764        1.0068466294       -1.1764719759
 C         -1.3682877323        0.8333143514       -0.5332676390
 C         -1.2132832359       -0.2093184981        0.3743355442
 C         -2.2835119666       -1.0568989143        0.6440283466
 C         -3.4907555754       -0.8701521124       -0.0015066349
 O         -0.0652678199       -0.4070345731        1.0959202195
 C          1.1584084741       -0.1312380595        0.5444768293
 C          1.4450992007       -0.3278627772       -0.8023808083
 C          2.7234383211       -0.0887831289       -1.2724525778
 C          3.7214084293        0.3366997749       -0.4125357690
 C          3.4380133814        0.5156411268        0.9313692018
 C          2.1635068713        0.2848075895        1.4123579213
 H         -4.5842622307        0.2975931490       -1.4257621631
 H         -2.6942142095        1.8180134553       -1.8803896747
 H         -0.5455813486        1.5072487651       -0.7240878415
 H         -2.1493696798       -1.8506331418        1.3623874368
 H         -4.3164764803       -1.5330844398        0.2102363654
 H          0.6715055480       -0.6751928067       -1.4719629351
 H          2.9397847263       -0.2429683224       -2.3193287225
 H          4.7166144939        0.5223014992       -0.7870723339
 H          4.2129667855        0.8403243854        1.6097024938
 H          1.9263043962        0.4172728924        2.4565052201
  23
  -34.8343582700000       2.338250289449320E-002 !mtd4
 C         -3.6188713383        0.6502729338       -0.5703414923
 C         -3.5813901956       -0.5988129406        0.0292550315
 C         -2.3753177583       -1.1640442850        0.3907672798
 C         -1.1866109888       -0.4773933585        0.1536165422
 C         -1.2209557034        0.7747927888       -0.4483908451
 C         -2.4374254935        1.3295873011       -0.8060955113
 O         -0.0352543365       -1.0985986869        0.5476802472
 C          1.1723332675       -0.4661447569        0.3136736171
 C          1.8416548722       -0.6709686456       -0.8858515203
 C          3.0804105350       -0.0885639742       -1.0856231828
 C          3.6491790013        0.6974907387       -0.0975174920
 C          2.9781795163        0.9004956856        1.0966361409
 C          1.7392081020        0.3220195950        1.3064695462
 H         -4.5637203704        1.0902247494       -0.8510076476
 H         -4.4988457461       -1.1366392636        0.2171287866
 H         -2.3276312158       -2.1346780528        0.8590547065
 H         -0.3012510828        1.3110387085       -0.6335724712
 H         -2.4559217239        2.3036427523       -1.2725502703
 H          1.3852171453       -1.2855538929       -1.6473904099
 H          3.6022976021       -0.2491157807       -2.0173005328
 H          4.6155787821        1.1514116267       -0.2579766157
 H          3.4192914147        1.5133655511        1.8685959495
 H          1.2032450443        0.4711788899        2.2317986475
  23
  -34.8343498800000       2.317582590075911E-002 !mtd9
 C         -3.6439225374        0.6889093972        0.2451231468
 C         -2.9767491702        1.0709338008       -0.9066201176
 C         -1.7437709388        0.5229787688       -1.2117300849
 C         -1.1789873497       -0.4150048932       -0.3575992625
 C         -1.8443785534       -0.7995617957        0.7990943817
 C         -3.0771705453       -0.2461481915        1.0949027752
 O          0.0219414868       -1.0138324874       -0.6925875185
 C          1.1820245981       -0.4546692417       -0.2360681943
 C          2.3639007161       -1.1051093639       -0.5837572193
 C          3.5776404417       -0.5996312686       -0.1641799642
 C          3.6296750876        0.5537210921        0.6027645776
 C          2.4550643772        1.1975887987        0.9470958390
 C          1.2309726867        0.7016750786        0.5333476407
 H         -4.6054720967        1.1197944037        0.4804714731
 H         -3.4168495740        1.7996464010       -1.5711706232
 H         -1.2113560204        0.8108728675       -2.1058130342
 H         -1.3893017498       -1.5288907133        1.4525071393
 H         -3.5955491264       -0.5459354533        1.9935192395
 H          2.3048312884       -2.0011597529       -1.1815175508
 H          4.4896001448       -1.1093602443       -0.4376788887
 H          4.5804714169        0.9467523155        0.9291572847
 H          2.4850012576        2.0970001035        1.5445171439
 H          0.3166027690        1.2094275243        0.8050428553
