  23
        -34.83655243
 C         -3.6896607731        0.7107873857       -0.1232594553
 C         -2.6049377314        1.3098473966       -0.7404920627
 C         -1.3569175511        0.7155565149       -0.7008698469
 C         -1.1892577743       -0.4903382179       -0.0281442738
 C         -2.2812177344       -1.0998171441        0.5823427942
 C         -3.5241048066       -0.4984484833        0.5315417706
 O         -0.0001308056       -1.1705188783        0.0011070163
 C          1.1891937207       -0.4905654947        0.0292050300
 C          2.2802419938       -1.0996216940       -0.5832967225
 C          3.5232351903       -0.4983487566       -0.5337729372
 C          3.6897628770        0.7103468175        0.1217733687
 C          2.6059566659        1.3089535254        0.7410650044
 C          1.3578560674        0.7147504163        0.7027177243
 H         -4.6604691882        1.1814410160       -0.1573838817
 H         -2.7287798550        2.2463201609       -1.2641350787
 H         -0.5148536544        1.1766544232       -1.1965867627
 H         -2.1352698094       -2.0425137596        1.0863943755
 H         -4.3668693578       -0.9754002445        1.0094152738
 H          2.1335183505       -2.0418767659       -1.0879520020
 H          4.3652767155       -0.9748929062       -1.0133241635
 H          4.6606296245        1.1809591787        0.1548394974
 H          2.7306159834        2.2449636920        1.2653413173
 H          0.5164883525        1.1754419667        1.1999950206
  23
        -34.83435827
 C         -3.6188713383        0.6502729338       -0.5703414923
 C         -3.5813901956       -0.5988129406        0.0292550315
 C         -2.3753177583       -1.1640442850        0.3907672798
 C         -1.1866109888       -0.4773933585        0.1536165422
 C         -1.2209557034        0.7747927888       -0.4483908451
 C         -2.4374254935        1.3295873011       -0.8060955113
 O         -0.0352543365       -1.0985986869        0.5476802472
 C          1.1723332675       -0.4661447569        0.3136736171
 C          1.8416548722       -0.6709686456       -0.8858515203
 C          3.0804105350       -0.0885639742       -1.0856231828
 C          3.6491790013        0.6974907387       -0.0975174920
 C          2.9781795163        0.9004956856        1.0966361409
 C          1.7392081020        0.3220195950        1.3064695462
 H         -4.5637203704        1.0902247494       -0.8510076476
 H         -4.4988457461       -1.1366392636        0.2171287866
 H         -2.3276312158       -2.1346780528        0.8590547065
 H         -0.3012510828        1.3110387085       -0.6335724712
 H         -2.4559217239        2.3036427523       -1.2725502703
 H          1.3852171453       -1.2855538929       -1.6473904099
 H          3.6022976021       -0.2491157807       -2.0173005328
 H          4.6155787821        1.1514116267       -0.2579766157
 H          3.4192914147        1.5133655511        1.8685959495
 H          1.2032450443        0.4711788899        2.2317986475
