! r2scan-3c def2/J RI DEFGRID2 scfconv6 printgap
%output
    printlevel normal
end
%cpcm
    smd true
    smdsolvent "water"
end
* xyz 0 1
C -3.2555340365 1.313229326 0.7024571951
O -2.2345167528 1.3888641561 -0.2926586787
C -1.1462571114 0.5578157412 -0.1527864165
C -1.1868759557 -0.8295537992 -0.0929521069
C -0.0173406187 -1.5600027015 0.0385581773
C 1.1891857454 -0.8947228139 0.0882816109
C 1.289686194 0.4987837057 -0.0058174427
C 0.0956103001 1.2219119332 -0.1273470597
O 0.0935114197 2.5722886808 -0.2295487093
O 2.5485071189 0.9953802161 0.0439864371
C 2.7942201755 2.3903160984 -0.0699999342
Cl 2.6524751639 -1.7979611486 0.2508636383
Cl -2.6767009174 -1.7046608276 -0.2290531374
H -3.8980019747 2.1691333692 0.5113755346
H -2.8226750588 1.381970184 1.7024199504
H -3.8353292933 0.3948499162 0.6183473731
H -0.0457363165 -2.6346413722 0.0927385886
H -0.8309272858 2.8656838366 -0.3445874228
H 2.4371075068 2.777537742 -1.0241880065
H 3.8767984608 2.4803238742 -0.0131819521
H 2.3301595477 2.941267627 0.7480650986
*
