! pbe def2-sv(p) def2/J RI DEFGRID1 loosescf d4 GCP(DFT/SV(P)) printgap
%output
    printlevel normal
end
* xyz 0 1
C 2.8590105842 -0.8482453829 -1.1237472829
C 2.0602663512 -0.2454807017 0.0297127165
C 3.0036935376 0.3560401823 1.0689160075
C 1.0546341631 0.815875383 -0.4858164563
C -0.3614818978 0.4098212241 -0.1979452569
C -0.9930073194 0.814225527 0.9718547816
C -2.2841529361 0.4066912615 1.2575899704
C -2.9639711193 -0.4161203993 0.375712881
C -2.3441554447 -0.8276666226 -0.7922127349
C -1.0535409555 -0.4173342486 -1.0747493542
H 3.4448682136 -0.0785555505 -1.6220326018
H 2.1942964729 -1.3062838636 -1.8523500839
H 3.5396576881 -1.6130156703 -0.7560628605
H 1.4940232637 -1.0518490961 0.5102770571
H 3.5867736691 1.1629445872 0.6298918505
H 2.4423341992 0.750663083 1.9125515486
H 3.6910275972 -0.4004748058 1.4411145282
H 1.1826477495 0.9450911334 -1.5612391509
H 1.2599219239 1.7742304197 -0.0075686895
H -0.4686014218 1.4575447708 1.6640096128
H -2.7619295807 0.7328011436 2.1698931965
H -3.9720944171 -0.7339145245 0.5965489431
H -2.8691055391 -1.4686979151 -1.4853645309
H -0.5763903158 -0.7401836237 -1.9890147177
*
