! r2scan-3c def2/J RI DEFGRID2 scfconv6 printgap
%output
    printlevel normal
end
* xyz 0 1
C 1.9050757867 -0.9824519196 0.5795221291
C 1.1842007854 0.3426421791 0.3399620846
H 0.8451896722 0.7502509653 1.3054085009
C -0.0166629454 0.189440885 -0.5997966446
C -1.2425232688 -0.4993466964 0.0082491393
C -1.9418883333 0.3909450113 1.0335071968
C -2.2213579842 -0.8718197198 -1.1049428344
O 2.0484018681 1.2912425841 -0.2732076294
H 1.2242027781 -1.7078208966 1.0135390285
H 2.2825200629 -1.3712387003 -0.3634750989
H 2.7406586425 -0.8453223304 1.2626077782
H -0.2945725967 1.19071327 -0.9368943962
H 0.3189500083 -0.3669041913 -1.4774703673
H -0.9238147694 -1.4210986066 0.5057143276
H -2.8186080975 -0.1131220334 1.4331586436
H -2.2617814941 1.3206332286 0.5682858853
H -1.2824759671 0.6311254827 1.8629612284
H -3.098400431 -1.3639027966 -0.6914430663
H -2.5455256061 0.0205610678 -1.6356843852
H -1.7541597604 -1.5454705072 -1.8191356856
H 2.8553811866 1.3725564781 0.2526377306
*
