! r2scan-3c def2/J RI DEFGRID2 scfconv6 printgap
%output
    printlevel normal
end
* xyz 0 1
C 1.7271744635 -2.4279667471 0.8842122447
O 0.9662677767 -1.8127105327 -0.1566657701
C 0.6878603079 -0.4871069494 -0.0533069652
C 1.6503776446 0.5250258614 0.0214776932
C 1.283841185 1.8579901396 0.1222640921
C -0.0484530048 2.2230177938 0.1327964559
C -1.0173163281 1.2389370152 0.0325331923
C -0.666055313 -0.1047704741 -0.0622156787
C -1.7182340932 -1.1624843093 -0.1469771541
O -2.6534352474 -1.2406298175 0.6207582558
O -1.521457302 -1.9970992844 -1.1425803297
Cl -2.6850292145 1.6897301693 0.0020230456
Cl 3.3405347837 0.1585824915 -0.0853986869
H 2.7570586108 -2.0733935016 0.9099886188
H 1.7095052973 -3.4885572563 0.6469125935
H 1.2529653616 -2.2545042442 1.8528981708
H 2.0521227559 2.6117171689 0.1794467379
H -0.3371759599 3.2574210243 0.2049540329
H -2.1906991473 -2.7101114085 -1.1831575514
*
