! r2scan-3c def2/J RI DEFGRID2 scfconv6 printgap
%output
    printlevel normal
end
* xyz 0 1
C -2.2399834102 1.2453369202 -0.1320137715
C -1.8639533875 -0.0871764545 0.5195963031
C -0.553105768 -0.5916468251 -0.0263447016
O -0.420996118 -1.5910557235 -0.7046421606
O 0.4586327021 0.1933404458 0.3103446512
C 1.7678996706 -0.1587371912 -0.1663652351
C 2.7314743493 0.9394008552 0.239687678
H -1.4712577031 1.9878793866 0.0626181252
H -2.3478697794 1.1248332749 -1.2072576712
H -3.1829281961 1.5978320937 0.2747923976
H -2.625614477 -0.8409910599 0.323044694
H -1.7538679627 0.0519172309 1.5952643839
H 2.04487693 -1.1235962312 0.2712146159
H 1.720285873 -0.2800220542 -1.2535875697
H 3.731252023 0.6805003272 -0.0926862181
H 2.4365610777 1.8815359362 -0.2124912364
H 2.730032735 1.0533179694 1.319572786
*
