  19
  -26.7871574000000       0.297552271759090      !md3
 C         -2.5921365496        1.4078413743       -0.0000312151
 C         -1.6082887041        0.2888199444        0.0000179901
 C         -1.8715655732       -1.0479405801        0.0000539728
 N         -0.7014869234       -1.7641037096        0.0001110107
 C          0.3483811752       -0.8935541594       -0.0000803385
 C         -0.1842888262        0.4186718910       -0.0000589551
 C          0.6849768119        1.5091142578        0.0000108508
 C          2.0407845704        1.2715542989        0.0000398048
 C          2.5517139345       -0.0295225239        0.0000100246
 C          1.7177276942       -1.1266274241       -0.0000492642
 H         -2.4563971531        2.0352100034        0.8807894174
 H         -2.4564073241        2.0348743371       -0.8809932742
 H         -3.6079846725        1.0205261438       -0.0001110953
 H         -2.8195028577       -1.5521915391        0.0001660123
 H         -0.6315460900       -2.7668622778       -0.0005643439
 H          0.2977962667        2.5172830522       -0.0000033319
 H          2.7308687816        2.1028847058        0.0002555992
 H          3.6221793191       -0.1742679861        0.0000750269
 H          2.1122449876       -2.1326220772       -0.0001184035
  19
  -26.7871573200000       0.297527083361985      !md2
 C         -2.5921905012        1.4077982412        0.0001878589
 C         -1.6082822917        0.2888319717       -0.0000524343
 C         -1.8715703372       -1.0479359973        0.0001893580
 N         -0.7014687684       -1.7640640697       -0.0001010489
 C          0.3483869666       -0.8935323318       -0.0001765029
 C         -0.1842918827        0.4186853366       -0.0003326610
 C          0.6850034809        1.5091450132       -0.0002748904
 C          2.0407798525        1.2715347971        0.0000713101
 C          2.5517323400       -0.0295701331        0.0002130599
 C          1.7177552358       -1.1266426504        0.0000354032
 H         -3.6081131141        1.0204289363        0.0056353432
 H         -2.4528679963        2.0378946609        0.8784793520
 H         -2.4602009996        2.0321156816       -0.8833539085
 H         -2.8194785844       -1.5520645376        0.0004635618
 H         -0.6316958146       -2.7668612395        0.0011792918
 H          0.2977495748        2.5172943480       -0.0003778539
 H          2.7309664130        2.1027872768        0.0004762042
 H          3.6222498320       -0.1741408975        0.0004419316
 H          2.1121712120       -2.1326603201        0.0001227303
  19
  -26.7871573000000       0.297520786596718      !md3
 C         -2.5922220665        1.4077711281       -0.0001752354
 C         -1.6082778058        0.2888215300        0.0000482553
 C         -1.8715703634       -1.0479328704        0.0000083058
 N         -0.7015060843       -1.7640752902       -0.0000611806
 C          0.3483671671       -0.8935206183        0.0001918439
 C         -0.1842867718        0.4187092349        0.0001704282
 C          0.6850336690        1.5091282217        0.0000863776
 C          2.0408372588        1.2715449950       -0.0000565580
 C          2.5517406744       -0.0295407930       -0.0001664261
 C          1.7177116114       -1.1266202372       -0.0000429102
 H         -2.4534699648        2.0371860043       -0.8789325420
 H         -3.6080606183        1.0203810142       -0.0048437817
 H         -2.4596307554        2.0327140416        0.8829035084
 H         -2.8195238836       -1.5521694085       -0.0003059608
 H         -0.6312573100       -2.7668244439        0.0014780018
 H          0.2978400351        2.5172987497       -0.0000580503
 H          2.7309445192        2.1028521814       -0.0001315302
 H          3.6221933638       -0.1744101725       -0.0001223360
 H          2.1121384661       -2.1326303975        0.0000992696
  19
  -26.7861944100000       0.107399858282207      !gc
 C         -2.6052798646        1.4018909830        0.0003460629
 C         -1.6074599913        0.2921695743       -0.0004429191
 C         -1.8700438687       -1.0464075980       -0.0003054625
 N         -0.7004417992       -1.7611995654        0.0001217660
 C          0.3488513978       -0.8907326586        0.0002467911
 C         -0.1840518750        0.4222346893        0.0000629639
 C          0.6903690842        1.5094528858        0.0000090110
 C          2.0452694737        1.2691405701       -0.0002003609
 C          2.5545424479       -0.0326799703       -0.0001295658
 C          1.7177111075       -1.1271346116        0.0001379469
 H         -3.2656564675        1.3284369461       -0.8632669159
 H         -3.2221979771        1.3665658581        0.8981316467
 H         -2.0997389038        2.3628081754       -0.0323786727
 H         -2.8177703572       -1.5509704232       -0.0009783603
 H         -0.6300076872       -2.7640016769        0.0002764829
 H          0.3110181587        2.5208380874        0.0002184906
 H          2.7364384445        2.0995484581       -0.0003358205
 H          3.6246929299       -0.1793018215       -0.0003036848
 H          2.1089250276       -2.1344044922        0.0002281440
