  19
        -26.78715740
 C         -2.5921365496        1.4078413743       -0.0000312151
 C         -1.6082887041        0.2888199444        0.0000179901
 C         -1.8715655732       -1.0479405801        0.0000539728
 N         -0.7014869234       -1.7641037096        0.0001110107
 C          0.3483811752       -0.8935541594       -0.0000803385
 C         -0.1842888262        0.4186718910       -0.0000589551
 C          0.6849768119        1.5091142578        0.0000108508
 C          2.0407845704        1.2715542989        0.0000398048
 C          2.5517139345       -0.0295225239        0.0000100246
 C          1.7177276942       -1.1266274241       -0.0000492642
 H         -2.4563971531        2.0352100034        0.8807894174
 H         -2.4564073241        2.0348743371       -0.8809932742
 H         -3.6079846725        1.0205261438       -0.0001110953
 H         -2.8195028577       -1.5521915391        0.0001660123
 H         -0.6315460900       -2.7668622778       -0.0005643439
 H          0.2977962667        2.5172830522       -0.0000033319
 H          2.7308687816        2.1028847058        0.0002555992
 H          3.6221793191       -0.1742679861        0.0000750269
 H          2.1122449876       -2.1326220772       -0.0001184035
  19
        -26.78619441
 C         -2.6052798646        1.4018909830        0.0003460629
 C         -1.6074599913        0.2921695743       -0.0004429191
 C         -1.8700438687       -1.0464075980       -0.0003054625
 N         -0.7004417992       -1.7611995654        0.0001217660
 C          0.3488513978       -0.8907326586        0.0002467911
 C         -0.1840518750        0.4222346893        0.0000629639
 C          0.6903690842        1.5094528858        0.0000090110
 C          2.0452694737        1.2691405701       -0.0002003609
 C          2.5545424479       -0.0326799703       -0.0001295658
 C          1.7177111075       -1.1271346116        0.0001379469
 H         -3.2656564675        1.3284369461       -0.8632669159
 H         -3.2221979771        1.3665658581        0.8981316467
 H         -2.0997389038        2.3628081754       -0.0323786727
 H         -2.8177703572       -1.5509704232       -0.0009783603
 H         -0.6300076872       -2.7640016769        0.0002764829
 H          0.3110181587        2.5208380874        0.0002184906
 H          2.7364384445        2.0995484581       -0.0003358205
 H          3.6246929299       -0.1793018215       -0.0003036848
 H          2.1089250276       -2.1344044922        0.0002281440
