! r2scan-3c def2/J RI DEFGRID2 scfconv6 printgap
%output
    printlevel normal
end
%cpcm
    smd true
    smdsolvent "water"
end
* xyz 0 1
C -2.0346957314 0.7336094391 0.7909042735
C -1.0848539056 0.4895471524 -0.3759852176
C 0.0330448385 -0.5175207923 -0.0333875721
C 1.4353519281 0.0478890877 -0.2991150297
C 1.8293983271 1.1262704741 0.7023774684
O -0.1483063368 -1.7495530433 -0.7154060842
H -2.4969109218 -0.1999553419 1.1031654143
H -1.4977472091 1.1533702338 1.6382982943
H -2.8199083739 1.4278825379 0.5013434677
H -1.6560575098 0.0945456242 -1.2188452586
H -0.6458193926 1.4376157657 -0.6892537553
H -0.0370431521 -0.7952804446 1.0243510561
H 2.1468329279 -0.7789590554 -0.2370397439
H 1.4743542611 0.4515698174 -1.314054256
H 2.8292019383 1.4922790143 0.4837145543
H 1.1405535104 1.9660919336 0.6636358636
H 1.8225696078 0.7242225913 1.7127569935
H -0.0299371615 -1.60223784 -1.6639965306
*
