  16
        -24.11924806
 C          3.0124911295        0.2779777577        0.4490769794
 C          1.6162562191        0.5236246374       -0.1081731772
 C          0.8958032935       -0.7928131075       -0.3951424432
 C         -0.4999775246       -0.5699010164       -0.9739492798
 N         -1.3809183735        0.0220551973        0.0517681660
 O         -1.9042475138        1.0782758041       -0.2067457148
 O         -1.5201409431       -0.5943714589        1.0795318327
 H          3.6130998115       -0.2884275869       -0.2593104898
 H          3.5138443952        1.2216157264        0.6470785719
 H          2.9578026703       -0.2832196422        1.3789231216
 H          1.0405568024        1.1092873889        0.6118092050
 H          1.6888324553        1.1067988811       -1.0290391053
 H          1.4780323715       -1.3811614539       -1.1062756614
 H          0.8023307793       -1.3708085693        0.5267686737
 H         -0.9410851341       -1.5263903138       -1.2646796666
 H         -0.4813014987        0.1109991525       -1.8265270242
