  16
        -24.11924806
 C          3.0124911295        0.2779777577        0.4490769794
 C          1.6162562191        0.5236246374       -0.1081731772
 C          0.8958032935       -0.7928131075       -0.3951424432
 C         -0.4999775246       -0.5699010164       -0.9739492798
 N         -1.3809183735        0.0220551973        0.0517681660
 O         -1.9042475138        1.0782758041       -0.2067457148
 O         -1.5201409431       -0.5943714589        1.0795318327
 H          3.6130998115       -0.2884275869       -0.2593104898
 H          3.5138443952        1.2216157264        0.6470785719
 H          2.9578026703       -0.2832196422        1.3789231216
 H          1.0405568024        1.1092873889        0.6118092050
 H          1.6888324553        1.1067988811       -1.0290391053
 H          1.4780323715       -1.3811614539       -1.1062756614
 H          0.8023307793       -1.3708085693        0.5267686737
 H         -0.9410851341       -1.5263903138       -1.2646796666
 H         -0.4813014987        0.1109991525       -1.8265270242
  16
        -24.11920777
 C          1.7872705301        0.8526639241        0.7148648194
 C          2.0329602296       -0.1346157132       -0.4202980395
 C          0.8809039682       -1.1186618097       -0.6236547716
 C         -0.4207208697       -0.4388853320       -1.0385984762
 N         -1.1529738249        0.1077820171        0.1234475768
 O         -1.6560190790        1.1975737274       -0.0099745414
 O         -1.2317218524       -0.5808237317        1.1097167505
 H          2.6875152175        1.4307806212        0.9081784725
 H          0.9931001664        1.5538289462        0.4700528777
 H          1.5172589982        0.3267598350        1.6280713320
 H          2.2113196341        0.4126527698       -1.3489947617
 H          2.9335592554       -0.7113767370       -0.2010460955
 H          1.1591174324       -1.8367593618       -1.3964486247
 H          0.6991945940       -1.6721391206        0.3003541626
 H         -1.0924666483       -1.1704588931       -1.4969129414
 H         -0.2549128858        0.3827764280       -1.7375738078
  16
        -24.11879518
 C          2.3695788112        0.7668090716        0.4753264962
 C          1.6266143246        0.2464126019       -0.7503183321
 C          0.8726466344       -1.0597024096       -0.4928166095
 C         -0.2068627200       -0.9334572890        0.5831220851
 N         -1.2241990680        0.0430887456        0.1543838336
 O         -1.3695188635        1.0299435370        0.8338835825
 O         -1.8413930447       -0.2107701071       -0.8509333983
 H          2.9932675434       -0.0139953715        0.9059061334
 H          3.0099879220        1.5988698409        0.1946169229
 H          1.6787965788        1.1242344489        1.2346571557
 H          0.9314753718        1.0107793459       -1.1039506820
 H          2.3439749314        0.0645688219       -1.5528622907
 H          0.3974743607       -1.3880946643       -1.4195539097
 H          1.5761473055       -1.8324404421       -0.1780963813
 H          0.2042900262       -0.5934181276        1.5334987897
 H         -0.7089364925       -1.8950785988        0.7118549570
  16
        -24.11867274
 C          3.3338108763        0.3299094715        0.2858429079
 C          2.1583261856       -0.1822113137       -0.5368728103
 C          0.8292445368        0.1251302641        0.1492151067
 C         -0.3543884063       -0.3865127503       -0.6762595420
 N         -1.5950903536       -0.0590239909        0.0438822789
 O         -2.1073661402        1.0074313456       -0.1944919092
 O         -1.9943878970       -0.8635653657        0.8500034114
 H          3.2661935946        1.4069191492        0.4197796065
 H          3.3456844294       -0.1376536585        1.2675142282
 H          4.2725718510        0.1043322752       -0.2132198156
 H          2.1735746835        0.2849311413       -1.5236351127
 H          2.2536733312       -1.2609460046       -0.6761333352
 H          0.8092227854       -0.3474299692        1.1338449943
 H          0.7303994817        1.2043986761        0.2857657039
 H         -0.2990138777       -1.4705471527       -0.7882168516
 H         -0.3820509322        0.1072788473       -1.6489137992
  16
        -24.11840407
 C          3.3378942563        0.6314969960       -0.2257056561
 C          2.2158338332       -0.3869972807       -0.0703897057
 C          0.8467810186        0.2903171320       -0.0714733240
 C         -0.2714729393       -0.7268732256        0.0839746535
 N         -1.6104019626       -0.0996936299        0.0890139055
 O         -1.6821563186        1.0980595633       -0.0196642746
 O         -2.5502842844       -0.8497837334        0.2042622163
 H          3.3166283687        1.3499149355        0.5902109997
 H          4.3052961511        0.1359225810       -0.2221201777
 H          3.2332129192        1.1743778940       -1.1619763777
 H          2.2651157035       -1.1090501062       -0.8883610717
 H          2.3498248408       -0.9346910909        0.8649770768
 H          0.7949196974        1.0136954117        0.7442127746
 H          0.7102797461        0.8398456553       -1.0045954807
 H         -0.1807292173       -1.2820245813        1.0218909353
 H         -0.2680337427       -1.4549778877       -0.7320147055
  16
        -24.11827173
 C          2.9309504776       -0.6428243614        0.0086483681
 C          2.2049257302        0.6541292819       -0.3280011593
 C          0.7737256293        0.6982804486        0.2060597663
 C         -0.1273122874       -0.3451098386       -0.4623089945
 N         -1.4953612893       -0.1553455158        0.0427509216
 O         -2.1980151078        0.6307712591       -0.5451386846
 O         -1.8097074503       -0.7717522777        1.0319120792
 H          2.4927415799       -1.4894010877       -0.5135477810
 H          3.9748869749       -0.5728304118       -0.2859868305
 H          2.8908173499       -0.8357736676        1.0781594541
 H          2.7519305693        1.4905851495        0.1107643892
 H          2.1935533644        0.7981895297       -1.4101983295
 H          0.7802259692        0.5253658767        1.2844919742
 H          0.3540661745        1.6898117493        0.0202006751
 H          0.1915645939       -1.3544909003       -0.2020547648
 H         -0.1370259001       -0.1981035765       -1.5436064707
  16
        -24.11798613
 C          2.9309389614        0.6937508025        0.1675229766
 C          2.2455497112       -0.5193790037       -0.4509884754
 C          0.8281433216       -0.7420625506        0.0766322559
 C         -0.1187122125        0.3745780787       -0.3339585127
 N         -1.5147003644        0.1021227835        0.0662758255
 O         -2.3423162771        0.8981934492       -0.3096037772
 O         -1.7397404763       -0.8747587540        0.7349503929
 H          2.4473582350        1.6197766366       -0.1331518539
 H          2.9131609421        0.6289127504        1.2530401192
 H          3.9685334013        0.7402050671       -0.1532744186
 H          2.2168285866       -0.4087577863       -1.5370810280
 H          2.8348320934       -1.4098885018       -0.2263570322
 H          0.4446628610       -1.6883306980       -0.3100514884
 H          0.8495183104       -0.8184475141        1.1650516630
 H         -0.1221397356        0.5212487092       -1.4175009988
 H          0.1537934922        1.3253835931        0.1308832557
  16
        -24.11790896
 C          2.8888310406       -0.5261617114       -0.6194281553
 C          2.2707740051        0.5418261326        0.2755488447
 C          0.8395892125        0.2156921934        0.7015104219
 C         -0.1291626844        0.2339770730       -0.4745677012
 N         -1.5121268092       -0.0563744292       -0.0477410751
 O         -2.3970552241        0.4666644530       -0.6817973250
 O         -1.6707523094       -0.8048200674        0.8843899335
 H          3.9391414734       -0.3057615994       -0.7923385762
 H          2.8189833634       -1.5042305536       -0.1490608644
 H          2.3946334958       -0.5695780794       -1.5868558035
 H          2.8774134333        0.6400202634        1.1773518834
 H          2.2870500422        1.5048876704       -0.2390959560
 H          0.8108779877       -0.7674113636        1.1738422098
 H          0.5107270557        0.9493332119        1.4407937816
 H          0.1362775135       -0.5408468906       -1.1993802063
 H         -0.1411752092        1.1995837011       -0.9842403784
  16
        -24.11789634
 C          2.9308268070        0.7511387907       -0.1321149111
 C          2.2526716709       -0.6110858459       -0.2252216515
 C          0.8444794997       -0.6218520692        0.3689511350
 C         -0.1178289788        0.2617796358       -0.4115000104
 N         -1.5194676042        0.0891669587        0.0273659405
 O         -2.2759522445        0.9942242624       -0.2326354845
 O         -1.8227409019       -0.9321537540        0.5906298525
 H          3.9632165243        0.6779658719       -0.4645209007
 H          2.4300161227        1.4870176161       -0.7559232542
 H          2.9289140925        1.1080869147        0.8952452905
 H          2.2098246486       -0.9272770921       -1.2696330069
 H          2.8546104495       -1.3431631930        0.3157345437
 H          0.4599866385       -1.6433711082        0.3647417261
 H          0.8841202598       -0.2868590700        1.4073574603
 H         -0.0956970227        0.0011794049       -1.4748434149
 H          0.1131563105        1.3239088422       -0.3158840264
  16
        -24.11614439
 C          2.3444703119        0.1529990013        0.9811609536
 C          1.7148481429        0.4334062392       -0.3788675539
 C          0.8605621441       -0.7468804079       -0.8727653645
 C         -0.5890813120       -0.3459852075       -1.1657207273
 N         -1.2247189317        0.0538674461        0.0998721432
 O         -1.5601536224       -0.8295613060        0.8505981025
 O         -1.3410804774        1.2364244765        0.3135519133
 H          2.9390295215        1.0033840708        1.3049699027
 H          1.5754619659       -0.0284391912        1.7289294655
 H          2.9919633726       -0.7198391824        0.9324904815
 H          1.0990174492        1.3314285026       -0.2977029324
 H          2.5033154730        0.6480874005       -1.1014838843
 H          1.2806167937       -1.1704787683       -1.7853584529
 H          0.8467254313       -1.5368536849       -0.1189261407
 H         -1.1403318415       -1.1998712688       -1.5636879519
 H         -0.6313222443        0.5008625011       -1.8519544567
