  14
  -19.3166918300000       0.500002645487323      !md2
 C         -1.8526257745        0.0000563780        0.0054494879
 C         -1.1537990983       -1.1957641565        0.0010270830
 C          0.2269887980       -1.2005056274       -0.0085246657
 C          0.9376639822       -0.0000506474       -0.0116589105
 C          0.2269914519        1.2003903490       -0.0086058020
 C         -1.1537704388        1.1958003878        0.0012075404
 N          2.3177131188        0.0000559120        0.0532944454
 H         -2.9320785063       -0.0000471184        0.0105111506
 H         -1.6891581929       -2.1342579640        0.0023755466
 H          0.7694306967       -2.1357108298       -0.0122964276
 H          0.7695641603        2.1355488337       -0.0124037805
 H         -1.6889467354        2.1345033819        0.0021186297
 H          2.7772007613        0.8469236631       -0.2401170008
 H          2.7773538991       -0.8468632686       -0.2393080183
  14
  -19.3166918200000       0.499997354512677      !mtd14
 C         -1.8523283262        0.0000027779       -0.0346449222
 C         -1.1536050641       -1.1957732952       -0.0193661678
 C          0.2268181244       -1.2004237103        0.0119966032
 C          0.9373557165        0.0000251718        0.0263079799
 C          0.2267802471        1.2004467852        0.0120501260
 C         -1.1536235105        1.1957967256       -0.0193195904
 N          2.3182974814       -0.0000830294       -0.0165098934
 H         -2.9315423977        0.0000023558       -0.0568584055
 H         -1.6888219660       -2.1344011156       -0.0288050533
 H          0.7692441430       -2.1356251566        0.0247018487
 H          0.7692375107        2.1356073242        0.0248281058
 H         -1.6888576865        2.1343919327       -0.0287232203
 H          2.7731372485       -0.8466399867        0.2848220913
 H          2.7734648920        0.8469312303        0.2832725688
