! pbe def2-sv(p) def2/J RI DEFGRID1 loosescf d4 GCP(DFT/SV(P)) printgap
%output
    printlevel normal
end
* xyz 0 1
C -2.4551889796 0.1208900234 -0.2587019169
C -1.1930385974 -0.2392826523 0.5119358569
N -0.0095727031 0.1684503984 -0.2232509228
C 1.2298651354 -0.2045990421 0.433908906
C 2.4289847734 0.1896354354 -0.4165204994
H -2.461203859 1.1841517599 -0.4790481074
H -2.4985949444 -0.4284195795 -1.196475126
H -3.3345015426 -0.125032787 0.3297576153
H -1.1887286988 -1.3240288939 0.7343773352
H -1.1795339915 0.2902133717 1.4703180699
H -0.0335613364 -0.2478299211 -1.150677103
H 1.2632157306 0.3259013799 1.3912555379
H 1.2704430824 -1.2886605938 0.6560049994
H 2.3893120944 1.251764174 -0.6386817053
H 3.3509879525 -0.0281787663 0.1148859977
H 2.428614293 -0.3616388277 -1.3541097445
*
