  21
        -25.39165662
 C          2.8515356687       -0.5017904381        0.0008422344
 C          1.3729662869       -0.2508041602       -0.0020818197
 C          0.8906642519        1.0537436579       -0.0023896931
 C         -0.4690596504        1.3141755455        0.0000435798
 C         -1.3576058553        0.2442144049        0.0029599919
 C         -0.9033169574       -1.0636639964        0.0037247896
 C          0.4675413070       -1.2981694152        0.0009184590
 C         -1.8609894972       -2.2178191392       -0.0024646203
 C         -0.9913834215        2.7199186163       -0.0004224211
 H          3.2995300003       -0.1084524920        0.9130218850
 H          3.0669949593       -1.5656566304       -0.0590035435
 H          3.3242923335       -0.0019022483       -0.8436140304
 H          1.5934288770        1.8756159703       -0.0038312749
 H         -2.4207976932        0.4416589964        0.0050717898
 H          0.8281445101       -2.3176575575        0.0012584859
 H         -1.8012289503       -2.7514053251       -0.9511129802
 H         -1.6156205414       -2.9221302817        0.7908898112
 H         -2.8838409146       -1.8768351526        0.1364861996
 H         -1.6203533762        2.8913137236        0.8724410623
 H         -0.1763319341        3.4392498269        0.0123632824
 H         -1.5984135870        2.8985240571       -0.8874427001
