! r2scan-3c def2/J RI DEFGRID2 scfconv6 printgap
%output
    printlevel normal
end
%cpcm
    smd true
    smdsolvent "water"
end
* xyz 0 1
C -2.35898668 0.7224176293 -0.0123050225
C -0.8448665159 0.8955362227 -0.0049294703
C -0.0918493639 -0.3330877783 0.5170800023
H -0.432832107 -0.5485097777 1.5355416586
C -0.3329147614 -1.568262384 -0.3511801503
C 1.4107332161 -0.0202533658 0.6177831321
O 2.0092703826 0.3358702285 -0.6091189729
H -2.8387398507 1.6574957778 -0.2908057805
H -2.6642528138 -0.0390057958 -0.7244876285
H -2.7132557837 0.4360812356 0.9755903572
H -0.5884805466 1.7482678277 0.6283087896
H -0.4941844838 1.1237087733 -1.0136280161
H 0.3230973816 -2.3805014911 -0.0445851539
H -0.1535595755 -1.3433070138 -1.400228415
H -1.3587907981 -1.9094053021 -0.2494805751
H 1.9359830719 -0.8799381639 1.0573165525
H 1.5646040087 0.8427607266 1.2709123535
H 1.9554699616 -0.4206995542 -1.2089592859
*
