  18
  -22.2148402000000       0.148445669035189      !mtd1
 C         -2.7448298330        0.0007095725       -0.7349144521
 C         -1.9714993064       -0.0009057418        0.5852687120
 C         -0.4916407898       -0.0004691947        0.3261489640
 C          0.2017399250       -1.1950454129        0.1803095444
 C          1.5564755379       -1.1964514058       -0.1001378637
 C          2.2374134687        0.0004971482       -0.2411252706
 C          1.5557484682        1.1969718899       -0.0995521875
 C          0.2010354794        1.1946098345        0.1809257110
 H         -2.4926003947        0.8826379978       -1.3195742679
 H         -3.8166534146        0.0010587217       -0.5495937514
 H         -2.4934197605       -0.8803598600       -1.3212588096
 H         -2.2466419232       -0.8863272357        1.1621575612
 H         -2.2467452713        0.8830815580        1.1643214772
 H         -0.3252224468       -2.1326078038        0.2909150402
 H          2.0827857771       -2.1339810515       -0.2081377609
 H          3.2954005802        0.0008606509       -0.4589655537
 H          2.0815316920        2.1348359835       -0.2069791439
 H         -0.3264835263        2.1317938329        0.2920958167
  18
  -22.2148401900000       0.148444098198958      !mtd1
 C         -2.7389361761        0.0011049187        0.7566599712
 C         -1.9760924554       -0.0011634630       -0.5696343699
 C         -0.4942138202       -0.0006101790       -0.3222325136
 C          0.2003898737       -1.1951410415       -0.1818139441
 C          1.5572851227       -1.1964231309        0.0879064150
 C          2.2392682022        0.0005700606        0.2233293617
 C          1.5564569785        1.1969952733        0.0870280445
 C          0.1995290770        1.1945268771       -0.1826060402
 H         -2.4823810334        0.8834560692        1.3387774019
 H         -2.4826234176       -0.8795146022        1.3415182407
 H         -3.8122080683        0.0009338580        0.5799390899
 H         -2.2558647029        0.8825993757       -1.1468992986
 H         -2.2558476446       -0.8869079981       -1.1438868686
 H         -0.3273973327       -2.1327114975       -0.2879498931
 H          2.0844754070       -2.1338704011        0.1920295376
 H          3.2988769407        0.0010029482        0.4331366858
 H          2.0828862135        2.1349902175        0.1907750053
 H         -0.3289541473        2.1316985507       -0.2895106442
  18
  -22.2148401900000       0.148444098198958      !mtd13
 C         -2.7452953344        0.0005046832       -0.7346236958
 C         -1.9714450350       -0.0008150535        0.5853307806
 C         -0.4916558559       -0.0003933324        0.3257639557
 C          0.2017039421       -1.1950014344        0.1799174283
 C          1.5565164405       -1.1964529785       -0.1000763631
 C          2.2376119990        0.0004881631       -0.2407533979
 C          1.5559588719        1.1969787172       -0.0994014668
 C          0.2011207920        1.1946432460        0.1806475028
 H         -3.8170191941        0.0000488136       -0.5488022877
 H         -2.4937207412       -0.8802691184       -1.3213761392
 H         -2.4940002211        0.8827575086       -1.3192366308
 H         -2.2463566967       -0.8862476353        1.1624514537
 H         -2.2464205456        0.8833108060        1.1644768732
 H         -0.3253291976       -2.1325662483        0.2902146813
 H          2.0828581469       -2.1339818839       -0.2079583735
 H          3.2956856091        0.0007471781       -0.4581963890
 H          2.0817470148        2.1348943351       -0.2068208920
 H         -0.3263612445        2.1318781279        0.2916394321
  18
  -22.2148401800000       0.148442527379349      !mtd10
 C         -2.7449309489        0.0014259315       -0.7348346955
 C         -1.9714845563       -0.0012100718        0.5852841516
 C         -0.4916351676       -0.0007652878        0.3260562137
 C          0.2019467998       -1.1952481573        0.1804126591
 C          1.5567186919       -1.1964392216       -0.0999173983
 C          2.2374518718        0.0006066177       -0.2410269701
 C          1.5555609035        1.1969925897       -0.0997163924
 C          0.2008412906        1.1944188739        0.1806604580
 H         -2.4946113663       -0.8798491955       -1.3213220837
 H         -2.4917704505        0.8831818197       -1.3193799090
 H         -3.8167283792        0.0029549612       -0.5494426060
 H         -2.2467709108       -0.8869759096        1.1616092887
 H         -2.2465404186        0.8824657295        1.1649417222
 H         -0.3248338884       -2.1328973820        0.2911701560
 H          2.0832090441       -2.1338731762       -0.2078227284
 H          3.2954308266        0.0011423659       -0.4589177540
 H          2.0811626678        2.1349502592       -0.2073982085
 H         -0.3269048740        2.1315070497        0.2916038797
  18
  -22.2148401800000       0.148442527379349      !mtd4
 C         -2.7390579817       -0.0012092548        0.7565338289
 C         -1.9760653575        0.0001841881       -0.5696134895
 C         -0.4942098554        0.0002910657       -0.3220942194
 C          0.1999417544       -1.1945896637       -0.1822715303
 C          1.5568804306       -1.1965544252        0.0872096917
 C          2.2393114394        0.0001381046        0.2232377065
 C          1.5569005013        1.1968629971        0.0877376402
 C          0.1999676115        1.1950794326       -0.1818697993
 H         -2.4817810800       -0.8826458209        1.3398685981
 H         -3.8122839199       -0.0023534381        0.5794853296
 H         -2.4837514542        0.8804724469        1.3403202534
 H         -2.2559712428        0.8852554416       -1.1447344762
 H         -2.2554640024       -0.8841342407       -1.1461573736
 H         -0.3281492533       -2.1319046440       -0.2893621276
 H          2.0837686958       -2.1342686302        0.1903691369
 H          3.2990381463        0.0001097012        0.4324590973
 H          2.0838707685        2.1345665974        0.1912242249
 H         -0.3280968434        2.1324900849       -0.2883188918
  18
  -22.2148401700000       0.148440956576363      !mtd10
 C         -2.7388560508       -0.0003729169        0.7567584070
 C         -1.9760777994       -0.0001953562       -0.5696440947
 C         -0.4942431598       -0.0001075063       -0.3222929816
 C          0.2001162276       -1.1948376900       -0.1822364840
 C          1.5570427261       -1.1965338763        0.0874413471
 C          2.2392289876        0.0002940494        0.2234066902
 C          1.5566678207        1.1969584907        0.0875061549
 C          0.1997797128        1.1948690072       -0.1822895231
 H         -3.8121408977       -0.0000403981        0.5801494031
 H         -2.4820060300        0.8807273270        1.3407593746
 H         -2.4824449395       -0.8823192360        1.3396760149
 H         -2.2559892162        0.8846579065       -1.1451765266
 H         -2.2558570134       -0.8848790580       -1.1455341886
 H         -0.3278433082       -2.1323175573       -0.2889214178
 H          2.0839518506       -2.1341901393        0.1913015990
 H          3.2988011591        0.0005653324        0.4332965738
 H          2.0833393746        2.1347720604        0.1913266900
 H         -0.3285110682        2.1321395138       -0.2890983120
  18
  -22.2127246900000       1.582509952496405E-002 !mtd13
 C         -2.8509779236        0.7471049555        0.1219092830
 C         -1.9776970861       -0.4831204020       -0.0964524702
 C         -0.4921545283       -0.2334933035       -0.0448757605
 C          0.3601024344       -1.3102689795        0.1818384944
 C          1.7311246056       -1.1405456088        0.2195333728
 C          2.2792184498        0.1173896088        0.0326772043
 C          1.4433781997        1.1954667679       -0.1938485845
 C          0.0698602734        1.0215258036       -0.2341167518
 H         -3.8957894587        0.4502895410        0.1856235279
 H         -2.7530420618        1.4512882240       -0.7008258886
 H         -2.5796218639        1.2495886755        1.0478894178
 H         -2.2179571469       -0.9223644461       -1.0707899262
 H         -2.2246913837       -1.2334727082        0.6596698350
 H         -0.0611436761       -2.2951665569        0.3308294645
 H          2.3740028936       -1.9905552085        0.3977540406
 H          3.3500902370        0.2548882833        0.0645303160
 H          1.8609604934        2.1812617355       -0.3410801166
 H         -0.5602636310        1.8783909364       -0.4146868522
  18
  -22.2127244600000       1.582124840471678E-002 !mtd8
 C         -2.8511221138       -0.7477777287        0.1207518262
 C         -1.9777802612        0.4827151888       -0.0959167579
 C         -0.4922676792        0.2332515149       -0.0443333472
 C          0.0702262318       -1.0214542346       -0.2341710915
 C          1.4437927047       -1.1950089855       -0.1943961700
 C          2.2794024736       -0.1167241260        0.0322766284
 C          1.7308406677        1.1408518699        0.2199540174
 C          0.3597876642        1.3101859123        0.1827284848
 H         -2.7525252488       -1.4511785849       -0.7023807668
 H         -3.8959020427       -0.4511044634        0.1841525140
 H         -2.5804510751       -1.2510954914        1.0463502029
 H         -2.2250959089        1.2322488698        0.6609403579
 H         -2.2176837807        0.9230530810       -1.0698391396
 H         -0.5595573218       -1.8786074817       -0.4148453601
 H          1.8616625831       -2.1805978945       -0.3421792060
 H          3.3502832891       -0.2539231265        0.0634664326
 H          2.3733840579        1.9910911475        0.3983320431
 H         -0.0618712037        2.2947946011        0.3321901310
  18
  -22.2127185000000       1.572178029706793E-002 !mtd11
 C         -2.8544107514        0.6790592079       -0.3123596118
 C         -1.9756171812       -0.4267189401        0.2606793216
 C         -0.4911662298       -0.2070373620        0.1191754260
 C          0.3615657411       -1.2991967256        0.2511597425
 C          1.7318010562       -1.1522726148        0.1483989526
 C          2.2788474874        0.0970458651       -0.0919276070
 C          1.4425781116        1.1903000834       -0.2244041428
 C          0.0696762243        1.0402469098       -0.1180854636
 H         -3.8993679214        0.3793464730       -0.2675528990
 H         -2.5974216885        0.8726675435       -1.3515263851
 H         -2.7463307404        1.6011977686        0.2535010634
 H         -2.2292484980       -1.3716969510       -0.2278455208
 H         -2.2038461370       -0.5480856744        1.3250848373
 H         -0.0591357852       -2.2780271484        0.4370506448
 H          2.3749088428       -2.0141979549        0.2536815859
 H          3.3491343394        0.2158601967       -0.1758477915
 H          1.8593845467        2.1695617915       -0.4119860725
 H         -0.5605380328        1.9097240146       -0.2234853595
  18
  -22.2127097600000       1.557704580855417E-002 !mtd3
 C         -2.8564170879       -0.6923832430       -0.2850572437
 C         -1.9758491126        0.4359573282        0.2384559467
 C         -0.4911580529        0.2103536273        0.1081293431
 C          0.0686731423       -1.0372299319       -0.1290299423
 C          1.4421556610       -1.1897823340       -0.2253534266
 C          2.2797042699       -0.0988123146       -0.0833592390
 C          1.7335406063        1.1510994085        0.1563132950
 C          0.3629746939        1.3005020485        0.2493431487
 H         -3.9018278550       -0.3942580822       -0.2401795791
 H         -2.7388505803       -1.5926875091        0.3132211470
 H         -2.6101728581       -0.9229050905       -1.3192159896
 H         -2.2041893515        0.6043635883        1.2964214456
 H         -2.2283397032        1.3590941129       -0.2909487576
 H         -0.5622209429       -1.9049181767       -0.2423157624
 H          1.8581775926       -2.1694329694       -0.4126020436
 H          3.3503283694       -0.2199920703       -0.1589676197
 H          2.3776926720        2.0112990512        0.2688479627
 H         -0.0572252872        2.2796089707        0.4348845029
  18
  -22.2127039100000       1.548091489714831E-002 !mtd4
 C         -2.8561022078       -0.7556004372        0.0367512134
 C         -1.9775545516        0.4876417700       -0.0272168481
 C         -0.4918474264        0.2328098085       -0.0127819780
 C          0.0669445102       -1.0207029146       -0.2179124168
 C          1.4415626837       -1.1931469869       -0.2060016000
 C          2.2809034196       -0.1157074399        0.0087179674
 C          1.7355427710        1.1410921812        0.2123484705
 C          0.3642606266        1.3095839850        0.2018616034
 H         -3.9018127351       -0.4633896172        0.1061973804
 H         -2.6102212407       -1.3556821056        0.9100883458
 H         -2.7369217178       -1.3665775239       -0.8548486588
 H         -2.2197494818        1.1381286113        0.8182472391
 H         -2.2186566045        1.0475717604       -0.9371335001
 H         -0.5648648095       -1.8781840422       -0.3888486153
 H          1.8568608618       -2.1779188305       -0.3660613079
 H          3.3522821668       -0.2523972475        0.0183182662
 H          2.3811158888        1.9908617699        0.3816101142
 H         -0.0556816103        2.2930954488        0.3628818017
  18
  -22.2127028300000       1.546323263298531E-002 !mtd6
 C         -2.8566965857       -0.7557563451        0.0273848799
 C         -1.9775062838        0.4877381000       -0.0196204094
 C         -0.4917986881        0.2325424828       -0.0092873705
 C          0.0667311129       -1.0208169124       -0.2158393381
 C          1.4414451236       -1.1929766635       -0.2070759952
 C          2.2810732272       -0.1154537647        0.0060140907
 C          1.7359256745        1.1411782666        0.2113159704
 C          0.3646231257        1.3094206932        0.2038642267
 H         -2.6145453446       -1.3655305110        0.8950622213
 H         -2.7341378928       -1.3568169669       -0.8705307736
 H         -3.9025822500       -0.4638398535        0.0960331373
 H         -2.2191104248        1.1265992028        0.8349022609
 H         -2.2187046985        1.0604132068       -0.9215234081
 H         -0.5651918868       -1.8784713765       -0.3854460363
 H          1.8565683005       -2.1776461332       -0.3682698421
 H          3.3524943072       -0.2519156316        0.0130459055
 H          2.3817578984        1.9910229481        0.3792851900
 H         -0.0552326391        2.2928148242        0.3660989790
  18
  -22.2127020700000       1.545080166639713E-002 !mtd3
 C         -2.8570719697        0.7552456916        0.0216104395
 C         -1.9774085261       -0.4882031086       -0.0141884536
 C         -0.4917095693       -0.2326256844       -0.0073504934
 C          0.3652093716       -1.3094691510        0.2040449501
 C          1.7364780553       -1.1408442363        0.2101259416
 C          2.2811157690        0.1159930331        0.0047612662
 C          1.4409661225        1.1933150816       -0.2073398451
 C          0.0662834982        1.0208816227       -0.2144123532
 H         -2.7322961405        1.3498175562       -0.8803905666
 H         -2.6176487573        1.3713205658        0.8856284907
 H         -3.9030642017        0.4632758164        0.0895890189
 H         -2.2189675683       -1.0697560425       -0.9102731316
 H         -2.2181133266       -1.1189524198        0.8466856957
 H         -0.0541451248       -2.2931028320        0.3661998262
 H          2.3826902514       -1.9906382708        0.3769325015
 H          3.3525108507        0.2529152855        0.0105906778
 H          1.8556424690        2.1780569244       -0.3692944604
 H         -0.5660801335        1.8784185012       -0.3829140001
