  18
        -22.21484020
 C         -2.7448298330        0.0007095725       -0.7349144521
 C         -1.9714993064       -0.0009057418        0.5852687120
 C         -0.4916407898       -0.0004691947        0.3261489640
 C          0.2017399250       -1.1950454129        0.1803095444
 C          1.5564755379       -1.1964514058       -0.1001378637
 C          2.2374134687        0.0004971482       -0.2411252706
 C          1.5557484682        1.1969718899       -0.0995521875
 C          0.2010354794        1.1946098345        0.1809257110
 H         -2.4926003947        0.8826379978       -1.3195742679
 H         -3.8166534146        0.0010587217       -0.5495937514
 H         -2.4934197605       -0.8803598600       -1.3212588096
 H         -2.2466419232       -0.8863272357        1.1621575612
 H         -2.2467452713        0.8830815580        1.1643214772
 H         -0.3252224468       -2.1326078038        0.2909150402
 H          2.0827857771       -2.1339810515       -0.2081377609
 H          3.2954005802        0.0008606509       -0.4589655537
 H          2.0815316920        2.1348359835       -0.2069791439
 H         -0.3264835263        2.1317938329        0.2920958167
