! r2scan-3c def2/J RI DEFGRID2 scfconv6 printgap
%output
    printlevel normal
end
* xyz 0 1
C -1.4452898116 0.3775550261 -0.267927112
C -0.0164042503 0.3281201576 0.2967260769
C 0.8330779584 -0.7736128391 -0.3545681416
O 2.165661739 -0.7275181431 0.1059058883
O 0.5682582906 1.5929473244 0.0697876295
O -2.2361232566 -0.7198591039 0.1160706856
H -1.3988084976 0.4820238786 -1.3573206144
H -1.9311906418 1.2667651239 0.1409269706
H -0.0811460915 0.1425170827 1.3826299491
H 0.8882347229 -0.5979150444 -1.4321132585
H 0.3872076346 -1.7556906896 -0.1682446629
H 2.201552768 -1.0241511078 1.0261575678
H 1.532688492 1.4781462377 0.0766095416
H -2.0095845095 -1.4928287333 -0.418020976
*
