  25
        -32.61941798
 C         -2.5837526993        1.4039655500       -0.0007171276
 C         -1.9650829347        0.0033823648       -0.0000143941
 C         -2.4516379787       -0.7327183513        1.2562614164
 C         -2.4517614253       -0.7340778525       -1.2554443772
 C         -0.4443873326        0.0343586892       -0.0000640558
 C          0.2679590768       -1.1638095180       -0.0000000972
 C          1.6464396125       -1.1920708599        0.0000238102
 C          2.3661879739       -0.0025413837        0.0000032197
 C          1.6748057008        1.1991224668       -0.0000043860
 C          0.2902002680        1.2120238512       -0.0000530182
 O          3.7276937270       -0.0628686651       -0.0000084493
 H         -3.6688090286        1.3207876756       -0.0006711600
 H         -2.2902295622        1.9619497155        0.8854180428
 H         -2.2901937558        1.9609697547       -0.8874546392
 H         -2.0929028092       -0.2271217732        2.1504066235
 H         -3.5392351796       -0.7515245990        1.2826677323
 H         -2.0929273283       -1.7578264220        1.2783478535
 H         -3.5393727884       -0.7520671277       -1.2821488723
 H         -2.0923716122       -0.2299309200       -2.1501446741
 H         -2.0938674748       -1.7595049457       -1.2760840631
 H         -0.2592374555       -2.1056595507        0.0000249576
 H          2.1853655991       -2.1263097305        0.0001102514
 H          2.2210952406        2.1341632673        0.0000185584
 H         -0.2031789259        2.1701489502       -0.0000040130
 H          4.0912705517        0.8305807867       -0.0002451054
