! r2scan-3c def2/J RI DEFGRID2 scfconv6 printgap
%output
    printlevel normal
end
* xyz 0 1
C -3.7431612666 -0.9811526639 -0.7636282133
C -3.0322785183 -0.2201804725 0.3431906345
O -1.6172022507 -0.4467644657 0.2471766885
C -0.7954280688 0.5964502826 0.1951342021
O -1.1747572563 1.7542089327 0.2491273784
C 0.6238066621 0.2027017112 0.0703402533
C 1.5921803147 1.2054706891 0.0496191043
C 2.9287469402 0.8748105441 -0.0650334
C 3.3059494584 -0.4560371385 -0.1607574525
C 2.345929567 -1.4566316397 -0.1421304234
C 1.0068564403 -1.1341047038 -0.0265266945
H -3.4258442865 -0.6159548794 -1.7368844339
H -3.5132750967 -2.0403581823 -0.6937290115
H -4.8142346723 -0.8395684508 -0.6629432139
H -3.3395614608 -0.5826269901 1.327881713
H -3.2181492478 0.8563283329 0.2764096243
H 1.2705297944 2.2333723907 0.1255175347
H 3.6755183961 1.6531453747 -0.0798262471
H 4.3499133998 -0.7136283789 -0.2505091793
H 2.6430986578 -2.4909043869 -0.2178389475
H 0.2522505434 -1.9038874781 -0.0104567455
*
