! pbe def2-sv(p) def2/J RI DEFGRID1 loosescf d4 GCP(DFT/SV(P)) printgap
%output
    printlevel normal
end
* xyz 0 1
C 1.8738885392 -1.0442820868 0.3677712924
C 1.2739858811 0.2729291261 0.845613438
C 0.1713505854 0.8634814319 -0.0461768787
H -0.0437057646 1.8661586827 0.3685124299
C -1.1861999188 0.1219921174 -0.0960098849
C -1.1356718165 -1.2139759164 -0.8368962887
C -1.7867138546 -0.0485388214 1.2965964376
O 0.7167046614 1.0197827924 -1.3465363273
H 2.0976406812 -0.983168965 -0.6935606182
H 1.2008873081 -1.8776591301 0.539061562
H 2.7985081798 -1.2389700978 0.9061983062
H 0.887684385 0.1703830394 1.8591666163
H 2.071771864 1.0193436933 0.8675228365
H -1.8514217082 0.7857044216 -0.6656974748
H -2.1301245598 -1.4811522401 -1.1871780709
H -0.4710300535 -1.1468253408 -1.6943456634
H -0.7843535379 -2.0094510903 -0.1871849053
H -1.2113561835 -0.7614257757 1.8811066893
H -2.8050603793 -0.4204216676 1.2147803321
H -1.8070276088 0.9010066136 1.8269223024
H 0.0773179246 1.4820134425 -1.9038864954
*
