  15
  -30.4147630000000       0.392077430927050      !mtd7
 C         -1.0935118621       -1.8636271303        0.0002989422
 C          0.2391110210       -1.4887476557        0.0000101122
 C          0.5490594571       -0.1361100983       -0.0002249364
 C         -0.4401615984        0.8386420875       -0.0002929937
 C         -1.7731398108        0.4510019816       -0.0000817614
 C         -2.0925025534       -0.9088718823        0.0002736320
 O         -2.7851961798        1.3445836606       -0.0001979578
 N          1.9300776108        0.2782062712       -0.0000617266
 O          2.1598142735        1.4694777099        0.0007056072
 O          2.7785014840       -0.5868586118       -0.0004660248
 H         -1.3558359950       -2.9097981633        0.0005245559
 H          1.0350891107       -2.2160009347        0.0000251291
 H         -0.1543732749        1.8811058446       -0.0005034013
 H         -3.1336051893       -1.1889720806        0.0005288500
 H         -2.4416493741        2.2470174655       -0.0001754267
  15
  -30.4147630000000       0.392077430927050      !gc
 C         -1.0935042805       -1.8636365723        0.0012268736
 C          0.2391256100       -1.4887730863        0.0011042837
 C          0.5490644769       -0.1361341953        0.0001567706
 C         -0.4401626927        0.8386092764       -0.0006480301
 C         -1.7731546559        0.4510012633       -0.0004818838
 C         -2.0924977161       -0.9088759150        0.0004583574
 O         -2.7851741555        1.3446063340       -0.0011890991
 N          1.9300472513        0.2782229247       -0.0000292459
 O          2.7785479978       -0.5868189959        0.0020094576
 O          2.1597546529        1.4694801289       -0.0022196671
 H         -1.3558360004       -2.9097979339        0.0019251784
 H          1.0350950583       -2.2160289855        0.0016852139
 H         -0.1543617597        1.8810708268       -0.0013747301
 H         -3.1335866675       -1.1890368869        0.0005680702
 H         -2.4415967300        2.2470368545       -0.0018301230
  15
  -30.4135439100000       0.107923711104103      !input
 C         -1.0765530412       -1.8706175168        0.0000050328
 C          0.2500681684       -1.4842425481       -0.0000013842
 C          0.5480503060       -0.1266614008       -0.0000095692
 C         -0.4452489226        0.8391426777       -0.0000003102
 C         -1.7776638409        0.4389884689        0.0000058165
 C         -2.0842845509       -0.9208472027        0.0000093099
 O         -2.7295442872        1.3970483350        0.0000106108
 N          1.9295829652        0.2929982589       -0.0000427157
 O          2.1580288286        1.4825863516       -0.0000206584
 O          2.7785426720       -0.5723478662        0.0000388476
 H         -1.3320536095       -2.9186542429        0.0000103297
 H          1.0521071698       -2.2046832869       -0.0000114459
 H         -0.1929094684        1.8873876731       -0.0000070543
 H         -3.1198089774       -1.2333267363        0.0000225374
 H         -3.6106056694        1.0027356722        0.0000160703
  15
  -30.4135438900000       0.107921427041797      !mtd12
 C         -1.0763334394       -1.8707354568       -0.0006735889
 C          0.2502484696       -1.4841768198       -0.0007552869
 C          0.5480411476       -0.1265744280       -0.0002462658
 C         -0.4453319628        0.8391348066        0.0002407398
 C         -1.7776908691        0.4387908432        0.0002834006
 C         -2.0841719054       -0.9210739224       -0.0001179335
 O         -2.7297583137        1.3966999650        0.0007154765
 N          1.9295757597        0.2932015799       -0.0000227690
 O          2.7786064878       -0.5720380519       -0.0029618841
 O          2.1578737388        1.4828062429        0.0032490930
 H         -1.3317084334       -2.9187736659       -0.0007747582
 H          1.0522743852       -2.2046255539       -0.0010830333
 H         -0.1932126706        1.8874334894        0.0007573222
 H         -3.1196428987       -1.2337134171       -0.0000151526
 H         -3.6107216213        1.0021705913        0.0006371307
