! r2scan-3c def2/J RI DEFGRID2 scfconv6 printgap
%output
    printlevel normal
end
* xyz 0 1
C 3.0324665991 -0.8646771986 1.0986669153
C 2.5886085323 0.1828502485 0.122516905
C 3.4593678378 0.961451455 -0.5019312983
C 1.1081305177 0.3134336353 -0.1413816628
H 0.9527082496 1.2087960123 -0.7522655531
C 0.5641338508 -0.885498217 -0.9301626768
C -0.8572026337 -0.5895166002 -1.4011719877
C -1.7041194876 -0.0760298407 -0.2703387623
C -1.1706512592 0.3928912017 0.8703898318
C 0.2853787405 0.4656208522 1.1422233838
C -3.1464439949 -0.0914546396 -0.4381133959
O -3.9661953263 0.2985285982 0.3753807346
H 2.5170139669 -1.8055084 0.9220255404
H 4.1027402171 -1.0315510264 1.0144904266
H 2.8209134915 -0.5458196607 2.1184118763
H 3.1497122099 1.7236211014 -1.1971235611
H 4.520758803 0.8699608374 -0.3440612473
H 1.2057065653 -1.0891722749 -1.7883611126
H 0.5537153095 -1.7703727515 -0.2927782722
H -0.8371816339 0.1605688294 -2.197110178
H -1.3121663203 -1.4912373245 -1.8163943712
H -1.8427050546 0.7295940437 1.6492751276
H 0.519712009 1.41009988 1.6379259053
H 0.5312881215 -0.3331996109 1.8478481559
H -3.493025821 -0.4993464705 -1.4063982839
*
