! pbe def2-sv(p) def2/J RI DEFGRID1 loosescf d4 GCP(DFT/SV(P)) printgap
%output
    printlevel normal
end
* xyz 0 1
C 1.6231494912 -0.5164146807 1.0140606992
C 1.1017883786 -0.3567157633 -0.4115300776
C 2.2362668909 0.0209284229 -1.3607579887
C -0.0014730794 0.7217349147 -0.4607187737
C -1.2369007022 0.2475796956 0.2584919772
O -1.535391482 0.5823965737 1.3830000047
O -2.0098784389 -0.6160622174 -0.3990469861
H 2.1141840618 0.3967630125 1.3423665687
H 2.3396679595 -1.3319759254 1.0678960913
H 0.8073117486 -0.7270540783 1.7028400304
H 0.6786782537 -1.3146508488 -0.7332843609
H 2.6605824457 0.981089143 -1.078279072
H 3.0227856678 -0.7276181327 -1.3171511376
H 1.8816948356 0.087311512 -2.3860527064
H -0.2445022967 0.9524117596 -1.4986318119
H 0.357134573 1.6255473761 0.0319817308
H -1.7043824898 -0.803029503 -1.3053562972
*
