! r2scan-3c def2/J RI DEFGRID2 scfconv6 printgap
%output
    printlevel normal
end
* xyz 0 1
C 2.4241620477 -0.1728185391 -0.9025612798
C 1.2533648928 -0.2611753973 0.072459407
H 1.0722313878 -1.3213183827 0.310741798
C -0.0116891966 0.3613109646 -0.5339918537
C -1.3097241001 0.0338450872 0.2159885206
C -2.4126383882 1.0028886867 -0.2084668254
C -1.7552101557 -1.4043406275 -0.0422152163
O 1.6541627471 0.4112338162 1.2579348301
H 2.2186837466 -0.7605129632 -1.791568583
H 2.5902181746 0.8638928359 -1.1830065742
H 3.3245147935 -0.5480452258 -0.4236812592
H 0.1357665865 1.4438704858 -0.5492320968
H -0.1058748408 0.0218187436 -1.5664146345
H -1.1453259322 0.1582782342 1.2928231377
H -2.5897031212 0.9253283129 -1.2787565166
H -2.1341263512 2.0288839039 0.0203318883
H -3.3405056551 0.7752455842 0.3107655555
H -2.6644915246 -1.6230873874 0.5126549424
H -1.9556414802 -1.5507365558 -1.1012422241
H -0.992112308 -2.115489408 0.2634066236
H 0.9183800477 0.420818915 1.8838735567
*
