  12
        -28.02715423
 C          0.0001043166       -2.5685874548        0.0000804306
 C          1.2011333971       -1.8819203702       -0.0000259621
 C          1.2009821614       -0.4953895610       -0.0000277383
 C         -0.0000153763        0.2119686431        0.0000319657
 C         -1.2009786961       -0.4954522481       -0.0000161756
 C         -1.2009754475       -1.8819646158       -0.0000101734
 Cl        -2.6927022145        0.3598421864       -0.0000447708
 Cl        -0.0001292791        1.9300896014        0.0000563020
 Cl         2.6927418053        0.3599897783       -0.0000374301
 H          0.0000497232       -3.6469567231        0.0001647582
 H          2.1410150584       -2.4097197588        0.0001094800
 H         -2.1408934341       -2.4097360609        0.0002512869
