! r2scan-3c def2/J RI DEFGRID2 scfconv6 printgap
%output
    printlevel normal
end
%cpcm
    smd true
    smdsolvent "water"
end
* xyz 0 1
C -3.0138481571 0.2724557241 -0.2057313396
C -1.5657683928 0.1982466187 -0.6787959731
C -0.6149670615 0.0171406488 0.5019576042
C 0.8808592284 -0.0912570674 0.146446913
C 1.38316387 1.1584328964 -0.57830332
C 1.1690911867 -1.3417584231 -0.6916349627
O 1.6297883686 -0.1489787873 1.3630697825
H -3.1496693345 1.1088307911 0.4762092678
H -3.2942922982 -0.6411133646 0.3138166607
H -3.6840540207 0.4060956607 -1.0512102882
H -1.4598365609 -0.6381290085 -1.3708932854
H -1.319534089 1.1153145751 -1.214720385
H -0.7296953737 0.8617663642 1.1865594898
H -0.9032392045 -0.8871123736 1.0464326409
H 1.1293832088 2.0458775046 -0.0048889433
H 0.9502381982 1.2299997229 -1.5700451997
H 2.4653177343 1.106185615 -0.6651225233
H 0.7429857092 -1.243141735 -1.6847292785
H 0.7513476268 -2.2270683183 -0.2166655032
H 2.244718299 -1.4711868563 -0.7871039578
H 1.3762547529 -0.9428236107 1.8525120473
*
