! pbe def2-sv(p) def2/J RI DEFGRID1 loosescf d4 GCP(DFT/SV(P)) printgap
%output
    printlevel normal
end
* xyz 0 1
C -0.2831883897 -2.5584653278 0.3742708164
C -0.04616384 -1.1203577151 -0.0463703321
O 1.2398485102 -0.7370483303 0.423264187
C 1.7956016483 0.3797093321 -0.0741052644
O 1.2649384689 1.0409661346 -0.9385859082
C 3.1095693378 0.6680152173 0.5677757421
O -0.9947602182 -0.2768207843 0.590282726
C -1.788269761 0.6139001697 -0.0326886295
O -2.4544207103 1.3316368279 0.6780342145
C -1.8335971111 0.6594347854 -1.5274013211
H 0.4927874848 -3.1874349987 -0.0487049912
H -1.2568329725 -2.8827278222 0.0224393356
H -0.2516461057 -2.6182679164 1.4576457752
H -0.0739424006 -0.9908603635 -1.134572551
H 3.6025197669 -0.2614439643 0.8328381259
H 3.7194786979 1.2698028072 -0.0982365163
H 2.924279962 1.2321064867 1.4802292188
H -0.8638895575 0.9811285837 -1.9071311531
H -2.0814066127 -0.31494827 -1.9406301827
H -2.5881510481 1.3843842542 -1.8160946804
*
