  21
        -24.05926618
 C         -2.9978509478        0.2461771789       -0.0430589492
 C         -1.6274581952       -0.4143919611        0.0434457437
 C         -0.5118091542        0.5574228407       -0.3369040426
 C          0.9026034343        0.0308365170       -0.0205443789
 C          1.9330945064        1.1041641926       -0.3989432015
 C          1.2056211821       -1.2653049625       -0.7719120128
 O          1.0146166838       -0.2791895460        1.3603723012
 H         -3.0631047597        1.0916428550        0.6390530051
 H         -3.7800097179       -0.4633069354        0.2166992479
 H         -3.1840269727        0.6074467468       -1.0525348721
 H         -1.4539861726       -0.7716814576        1.0605826068
 H         -1.6051502941       -1.2777150645       -0.6227780545
 H         -0.5719870016        0.7925099347       -1.4009846566
 H         -0.6592865051        1.4913778437        0.2154467313
 H          1.7149943683        2.0428799799        0.1088191909
 H          1.9216594281        1.2804181332       -1.4708780217
 H          2.9285981382        0.7773779559       -0.1075199424
 H          2.2446619056       -1.5419638018       -0.6151122256
 H          1.0253632628       -1.1396228065       -1.8354721868
 H          0.5816481598       -2.0668071524       -0.3895289815
 H          0.8530874300        0.5239777648        1.8676307066
