! pbe def2-sv(p) def2/J RI DEFGRID1 loosescf d4 GCP(DFT/SV(P)) printgap
%output
    printlevel normal
end
* xyz 0 1
C 2.3104773396 0.4703816298 0.5125210348
C 1.5757834332 -0.2255273022 -0.6306626931
C 0.2723429908 -0.8950328243 -0.1747131334
C -0.9738641064 -0.0107856999 -0.3378338847
H -1.095231199 0.2304207042 -1.40686452
C -2.2223346774 -0.7432208652 0.146214178
O -0.8902187355 1.1997051682 0.3992285472
H 3.1648701233 1.0271095052 0.1342760307
H 2.6725640645 -0.2667158946 1.2260444532
H 1.6553326113 1.1553548808 1.0440279213
H 1.3583289604 0.4910187966 -1.4269753827
H 2.2374561502 -0.9830046751 -1.0551356232
H 0.0982380466 -1.7989964897 -0.7596367839
H 0.3609271268 -1.1843213205 0.8737032067
H -2.3643295214 -1.6595886842 -0.4177359325
H -2.1192024999 -0.9800574263 1.2017373087
H -3.0924640071 -0.1046525403 0.0209811449
H -0.2140040697 1.7627911242 0.0016392763
*
