! wb97x-v def2-tzvp def2/J RIJCOSX DEFGRID2 scfconv7 GCP(DFT/TZ) printgap
%output
    printlevel normal
end
%cpcm
    smd true
    smdsolvent "water"
end
* xyz 0 1
C -2.785455369443305 0.0020354129327275565 -0.33271110632922296
C -2.1050242812456066 -1.2020346485936815 -0.1624648035669661
C -0.7598587306326969 -1.2003012201533692 0.19816304065666943
C -0.07356325996857384 0.0020698934102910517 0.3968511139354653
C -0.7651946880560019 1.2043933567192997 0.21787269243609667
C -2.1103992340390754 1.2061499207182527 -0.14250732215450326
C 1.3932730443534775 0.003225348028060598 0.7328613823408646
C 2.2396056457634654 -0.0030913572818308203 -0.5417576964198229
O 3.647711013870555 0.022464057027853875 -0.25962296646966093
H -3.835175986294473 0.0019539689247061757 -0.6091620173071315
H -2.624107882352941 -2.1449574938472353 -0.3058724554047814
H -0.23466601860779338 -2.1423526037262306 0.33327288173232417
H -0.24362125033725368 2.1461931618053605 0.3678530273121596
H -2.633721318377904 2.149005597481648 -0.27003443630523477
H 1.6477889706976696 0.8915307505294833 1.3210091200106233
H 1.6446343816203313 -0.8843836212681423 1.3255696899523137
H 1.9859047956561307 -0.8813907413347236 -1.1528703472430182
H 2.0318587586275485 0.8943797588819902 -1.1337430375942708
H 3.8602523868174483 -0.7912470263085212 0.21629300698503334
*
