  9
        -10.57826787
 C         -1.7063614829        0.3737462590       -0.0343326552
 C         -0.5996263826       -0.6580548318        0.0550768579
 S          1.0624654339        0.1006481864       -0.0410221354
 H         -1.6668744066        1.0560381498        0.8129814239
 H         -1.6113569565        0.9536707856       -0.9495699125
 H         -2.6749300018       -0.1225334959       -0.0344357352
 H         -0.6344723567       -1.3471564356       -0.7879947637
 H         -0.6529420603       -1.2279290535        0.9827422278
 H          0.9250469009        0.8744855165        1.0339323237
