  15
        -17.72129959
 C         -2.4250444732        0.1018119617       -0.1336047511
 C         -1.0007362331        0.4146432498        0.3072559496
 C         -0.0179023882       -0.6285950685       -0.2304553107
 O          1.2955871807       -0.5118964482        0.2871367769
 C          2.0234123162        0.5994906134       -0.1933407689
 H         -3.1101508605        0.8543765293        0.2467376564
 H         -2.4927336653        0.0890550480       -1.2188198620
 H         -2.7354120256       -0.8702346167        0.2413709999
 H         -0.9375906850        0.4194063672        1.3971773576
 H         -0.7190836504        1.4056191093       -0.0532459801
 H         -0.3404045049       -1.6283798152        0.0713606838
 H          0.0122331560       -0.5842169547       -1.3293009068
 H          3.0411875421        0.4682005736        0.1666190844
 H          1.6215710150        1.5419463511        0.1895392674
 H          2.0191709505        0.6224165752       -1.2885086366
  15
        -17.72128760
 C         -2.5099406390       -0.0184578286       -0.2221634222
 C         -1.2048029090        0.0141284859        0.5623496891
 C          0.0066776828       -0.0124999648       -0.3621916341
 O          1.1826991691        0.0213901162        0.4259607392
 C          2.3656594838       -0.0029234494       -0.3404699806
 H         -2.5786912543        0.8417239232       -0.8835900866
 H         -2.5698452351       -0.9215506012       -0.8245678419
 H         -3.3560612216        0.0002112840        0.4585482131
 H         -1.1439257856       -0.8439433049        1.2332022931
 H         -1.1513148898        0.9167132178        1.1726723097
 H         -0.0003798154       -0.9256997134       -0.9773041095
 H         -0.0093709759        0.8547577016       -1.0404525542
 H          2.4244533228       -0.9175315516       -0.9414682946
 H          3.1893591407        0.0259705668        0.3682389197
 H          2.4186349149        0.8651915782       -1.0074091761
  15
        -17.72114662
 C         -2.0354067089        0.6274168900       -0.1803812559
 C         -1.3106432213       -0.5568647218        0.4477402430
 C          0.0815343988       -0.7465522379       -0.1449025769
 O          0.8952697442        0.3522795765        0.2244851636
 C          2.2008646417        0.2738269472       -0.2969257982
 H         -1.4438542741        1.5299260144       -0.0511382414
 H         -2.1866117728        0.4607882117       -1.2444275273
 H         -3.0039357232        0.7721624457        0.2901452540
 H         -1.8802211146       -1.4734089964        0.2900361174
 H         -1.2040230947       -0.3935901770        1.5208708120
 H          0.5332827580       -1.6781347615        0.2301989214
 H          0.0251408329       -0.8111344807       -1.2424201208
 H          2.7246974481        1.1598130310        0.0530568174
 H          2.1857522388        0.2602969431       -1.3929553572
 H          2.7134192747       -0.6262378740        0.0622967798
  15
        -17.72106909
 C         -1.9171526171        0.2553773885       -0.6075540011
 C         -1.1055577205        0.2426812061        0.6823436828
 C          0.0675156858       -0.7385339735        0.5991037271
 O          0.9941354953       -0.4551726079       -0.4343201084
 C          1.8283329445        0.6573509327       -0.1900130071
 H         -2.7036588965        1.0037062880       -0.5577105656
 H         -1.2704393120        0.4812321652       -1.4523622236
 H         -2.3711898159       -0.7176790854       -0.7784663496
 H         -1.7354116020       -0.0598682672        1.5197560711
 H         -0.7294684965        1.2455073128        0.8924434126
 H          0.5941662054       -0.7736036820        1.5642204170
 H         -0.3047785134       -1.7384823176        0.3627069909
 H          2.5611712196        0.6638914337       -0.9935354845
 H          2.3388585273        0.5559033349        0.7741645710
 H          1.2682929907        1.5969746063       -0.2030715912
  15
        -17.71877998
 C         -1.8679215572        0.8132453166        0.1473331757
 C         -1.1674051064       -0.4053893525       -0.4467730982
 C          0.0343492206       -0.8919495027        0.3806304665
 O          1.2978100336       -0.4932389145       -0.1228638673
 C          1.5894783424        0.8817127342        0.0128669124
 H         -1.1967955427        1.6647201922        0.2198368469
 H         -2.7128579799        1.0961159425       -0.4757503691
 H         -2.2392424002        0.5835393925        1.1435657167
 H         -0.8170013496       -0.1852290189       -1.4571016009
 H         -1.8885429938       -1.2202288717       -0.5202240975
 H         -0.0662961043       -0.5614874171        1.4244423797
 H          0.0868243831       -1.9826768380        0.3630488914
 H          0.9765546545        1.4916771669       -0.6569587701
 H          2.6372374380        0.9932551985       -0.2578993620
 H          1.4390987228        1.2115971171        1.0465033025
  15
        -17.71814900
 C         -1.7772444806        0.8575946116       -0.1650329896
 C         -1.2905700112       -0.5848278397       -0.0663820583
 C          0.0735541185       -0.7553407954        0.6142331655
 O          1.1909454221       -0.4720047558       -0.2143342028
 C          1.6749369433        0.8532642509       -0.1655564246
 H         -1.7296694109        1.3440022155        0.8069032284
 H         -1.1804880159        1.4291641321       -0.8706794654
 H         -2.8090868740        0.8757690586       -0.5077911322
 H         -1.2300906861       -1.0252052675       -1.0630181914
 H         -2.0127879205       -1.1613789857        0.5144672682
 H          0.1221937869       -0.1494971962        1.5281015358
 H          0.1980369243       -1.8081578819        0.8868846219
 H          1.8633437045        1.1619338186        0.8683179534
 H          0.9842230026        1.5613738186       -0.6301422348
 H          2.6112289017        0.8471103666       -0.7197548235
