  8
        -15.41622195
 C         -0.4861846017        0.5803231381       -0.0001835881
 C          0.4862476316       -0.5804010905       -0.0001987764
 Cl         2.1525063723        0.0561533407        0.0000784606
 Cl        -2.1525326557       -0.0561192805        0.0000788041
 H         -0.3714429516        1.1950074307       -0.8928926461
 H         -0.3711576506        1.1952375065        0.8922793042
 H          0.3712560488       -1.1952623621        0.8923800039
 H          0.3715179559       -1.1952516984       -0.8927418819
  8
        -15.41402385
 C         -0.6222139530        0.4310273462        0.9726463811
 C          0.6222230963       -0.4311789796        0.9725017276
 Cl         1.6780983998       -0.0265889574       -0.4081691898
 Cl        -1.6781040730        0.0266512924       -0.4081685601
 H         -0.3715336691        1.4881496616        0.8875163689
 H         -1.2007868614        0.2538241253        1.8800170939
 H          1.2008472245       -0.2540483230        1.8799100876
 H          0.3715639013       -1.4883111130        0.8872804451
