! r2scan-3c def2/J RI DEFGRID2 scfconv6 printgap
%output
    printlevel normal
end
* xyz 0 1
C -2.7760358679 -0.0017950842 -0.3003994311
C -2.101683937 -1.2004672899 -0.1404353159
C -0.7594724271 -1.2021264968 0.1969271443
C -0.0736397236 -0.0082321418 0.3818464863
C -0.7590375784 1.1890015835 0.2172686385
C -2.1010992828 1.1937512688 -0.1202892849
C 1.3905961854 -0.0105968583 0.71224797
C 2.2300934032 0.0153194206 -0.5686803035
O 3.597523085 0.0174624047 -0.2117084733
H -3.8233873437 0.0006835941 -0.5622299665
H -2.6227775372 -2.1362865309 -0.2776707436
H -0.2377009514 -2.1397065888 0.3233442283
H -0.2367342003 2.1239804543 0.3597782127
H -2.6217339251 2.1319986319 -0.2417868725
H 1.6540384974 0.8635178573 1.309533044
H 1.6586720712 -0.9042379074 1.2776243138
H 1.9925562483 -0.8673839804 -1.178173562
H 1.9821398061 0.9147853225 -1.1487903714
H 4.1396311378 0.0351075063 -1.0113312712
*
