! r2scan-3c def2/J RI DEFGRID2 scfconv6 printgap
%output
    printlevel normal
end
%cpcm
    smd true
    smdsolvent "water"
end
* xyz 0 1
C -3.1034493599 0.7125647928 0.0093047186
C -1.6707433831 0.4791111648 -0.452290659
C -0.8603806662 -0.2729753336 0.614536346
C 0.5350568915 -0.5053465628 0.1034121166
O 0.8976366759 -1.4950964079 -0.49887127
O 1.3220021577 0.5311488195 0.3625165164
C 2.676693693 0.5119263813 -0.0984443994
H -3.6601911985 1.2470090228 -0.7554821372
H -3.601408071 -0.2344684994 0.200377102
H -3.1175332579 1.3011609701 0.9228184284
H -1.1875984861 1.4366578687 -0.6550373314
H -1.6690866778 -0.1039426326 -1.3756496748
H -1.3240292746 -1.2380870949 0.8163959541
H -0.8132700283 0.321962565 1.5256131373
H 2.9234702549 -0.4792122274 -0.4804975926
H 3.3080629492 0.7681187703 0.7492490683
H 2.779479806 1.2560663145 -0.8868334156
*
