! r2scan-3c def2/J RI DEFGRID2 scfconv6 printgap
%output
    printlevel normal
end
* xyz 0 1
C -2.231130166 0.8372032249 0.746078992
C -1.803447152 0.4029939057 -0.6505349951
C -0.9053137216 -0.8410144356 -0.6106463227
C 0.4072001608 -0.5358090908 0.0614574486
O 0.7793594377 -1.0016725779 1.1185271003
O 1.1325620003 0.3241767773 -0.6454943416
C 2.3992837202 0.7159608139 -0.1131764199
H -1.3628853503 1.057435782 1.3644688369
H -2.8518498551 1.7276195199 0.6934642939
H -2.7985125172 0.0479155046 1.2335278165
H -1.2627318691 1.2128451335 -1.1424829896
H -2.6877385188 0.1719610992 -1.2451786595
H -0.6935724654 -1.1662276918 -1.6294259309
H -1.3922620405 -1.6457903555 -0.060397409
H 3.0156986945 -0.1649667173 0.0703024179
H 2.2601521589 1.2520521597 0.8264742089
H 2.8473772542 1.3578754947 -0.8649441909
*
