! r2scan-3c def2/J RI DEFGRID2 scfconv6 printgap
%output
    printlevel normal
end
%cpcm
    smd true
    smdsolvent "water"
end
* xyz 0 1
C 2.0702416098 -1.3782249368 -0.1719317837
C 1.6693260791 0.0846879533 -0.3072294325
C 0.3283946191 0.4476035778 0.3514309041
H 0.3689404376 0.1752136086 1.4193230393
C -0.8733008812 -0.2882559942 -0.292563558
C -1.2645518584 -1.5173608304 0.5275907771
C -2.0911103466 0.6249139289 -0.4355120762
O 0.1228035605 1.8493636443 0.2500621737
H 3.0724141158 -1.5212316569 -0.5686150235
H 1.3930809471 -2.0238428839 -0.7234615488
H 2.0694093997 -1.6783684472 0.8735346708
H 2.4466508559 0.7019540486 0.1524091565
H 1.6129376009 0.3592814237 -1.363207736
H -0.5768040742 -0.6086298868 -1.2968089414
H -1.6327176868 -1.211662327 1.5046998971
H -2.0562603827 -2.0632313751 0.0201710177
H -0.422896506 -2.1874182765 0.6717184214
H -2.9102010268 0.0746659263 -0.8918692129
H -1.8552149408 1.4854091921 -1.0544573654
H -2.4095154706 0.9861308611 0.5392553788
H 0.8694167964 2.3060743959 0.6591156243
*
