! pbe def2-sv(p) def2/J RI DEFGRID1 loosescf d4 GCP(DFT/SV(P)) printgap
%output
    printlevel normal
end
* xyz 0 1
C 2.3766016786 -0.5025833813 0.4797937907
C 1.5592647556 0.1657611578 -0.6214351158
C 0.2762434178 0.8337081523 -0.1038858572
C -1.0044252437 0.0229796056 -0.3390603738
C -2.220676873 0.848770279 0.0796473755
C -0.9969597276 -1.3051887284 0.4133541022
H 2.6957046652 0.2354877245 1.212617517
H 1.7972607473 -1.2644109762 0.9932800695
H 3.2640593391 -0.9712679652 0.0597597266
H 2.1882985894 0.9190994627 -1.1006124019
H 1.303669378 -0.5714619041 -1.3852675815
H 0.3779471891 1.0339188919 0.9647982481
H 0.1512699887 1.7974164194 -0.6027916276
H -1.0840551339 -0.1870912958 -1.412413665
H -3.139759554 0.3005067752 -0.1135393965
H -2.2586030419 1.7860085642 -0.4709205899
H -2.1741115722 1.0766587365 1.1424596211
H -0.861281812 -1.1352584898 1.4794230198
H -1.9420296155 -1.8241309107 0.2673423045
H -0.1997726985 -1.9515648602 0.0572829408
*
