  12
  -22.7806086400000       3.891420323653121E-002 !mtd3
 C         -2.1681242606       -0.0693096655        0.0090665242
 O         -0.9948726287        0.1742305022        0.7538836359
 S          0.4015755259        0.1065568765       -0.0426246274
 O          1.3540509035        0.8174395789        0.7382564776
 O          0.1833980641        0.4857221789       -1.4050902570
 C          0.7796715071       -1.6546547558        0.0239722451
 H         -2.9536607859        0.5731144025        0.4061137039
 H         -2.4668037107       -1.1164539959        0.1080918497
 H         -1.9852335618        0.1711687377       -1.0400982162
 H          0.0369539751       -2.1829670886       -0.5573013408
 H          1.7648458968       -1.7921840623       -0.3999123646
 H          0.7634366174       -1.9499957029        1.0633935214
  12
  -22.7806086400000       3.891420323653121E-002 !md4
 C         -1.8559490069        0.0872421625        1.1193420482
 O         -1.2500013373        0.0462953260       -0.1541800319
 S          0.3579396490        0.0847079143       -0.1979243875
 O          0.8406210993        0.8166703729        0.9329639053
 O          0.7225207071        0.4991367743       -1.5085378316
 C          0.7749449089       -1.6568641067        0.0081659444
 H         -2.0865173329       -0.9259381502        1.4597832071
 H         -2.7782551597        0.6608046653        1.0306808411
 H         -1.1802044776        0.5755054552        1.8243256740
 H          1.8454225524       -1.7513153373       -0.1117074313
 H          0.4737003564       -1.9623869009        1.0003962253
 H          0.2516358393       -2.2081677670       -0.7599991592
  12
  -22.7806086400000       3.891420323653121E-002 !mtd11
 C         -2.1681037977       -0.0695308811        0.0091943996
 O         -0.9947800614        0.1744581004        0.7537781882
 S          0.4014890319        0.1065537058       -0.0426418137
 O          1.3540443452        0.8173632346        0.7383168603
 O          0.1835275679        0.4857798160       -1.4051235755
 C          0.7796047227       -1.6546342541        0.0239551246
 H         -2.4668779217       -1.1165688892        0.1089560055
 H         -1.9853656585        0.1702952064       -1.0401418520
 H         -2.9535779906        0.5731694307        0.4058500792
 H          0.7627443882       -1.9501526415        1.0633117228
 H          0.0373978469       -2.1829869821       -0.5579342826
 H          1.7650999899       -1.7918970371       -0.3992834354
  12
  -22.7806086300000       3.891379145058464E-002 !gc
 C         -1.8561954551        0.0884667066        1.1192893007
 O         -1.2500359267        0.0453570201       -0.1540257196
 S          0.3577965149        0.0844365209       -0.1979200681
 O          0.8403547420        0.8169865640        0.9326840003
 O          0.7226050149        0.4990375165       -1.5084444425
 C          0.7756856599       -1.6568643066        0.0082643172
 H         -1.1803976289        0.5775533610        1.8236283577
 H         -2.0870899037       -0.9240936414        1.4612542038
 H         -2.7782267360        0.6622293310        1.0295767266
 H          0.2517173042       -2.2086367195       -0.7591298180
 H          1.8460186880       -1.7508487323       -0.1129903147
 H          0.4758613538       -1.9622082319        1.0009702968
  12
  -22.7806086300000       3.891379145058464E-002 !gc
 C         -1.8563682425        0.0889835992        1.1191977321
 O         -1.2499808313        0.0448928537       -0.1540069816
 S          0.3578567793        0.0844339878       -0.1978925020
 O          0.8402854404        0.8170229106        0.9327144660
 O          0.7224067021        0.4989081019       -1.5085382737
 C          0.7759748675       -1.6568253486        0.0083408308
 H         -2.0880091395       -0.9232898219        1.4614850207
 H         -2.7780001841        0.6633182390        1.0290880994
 H         -1.1803651167        0.5778919741        1.8234534028
 H          0.4751351934       -1.9624036292        1.0006938410
 H          0.2527358315       -2.2084951706       -0.7595990260
 H          1.8464557209       -1.7507241021       -0.1118009041
  12
  -22.7806086200000       3.891337966899554E-002 !mtd1
 C         -2.1680654935       -0.0697526363        0.0092420183
 O         -0.9948284571        0.1746997590        0.7537917526
 S          0.4016710972        0.1066480925       -0.0426524426
 O          1.3540014510        0.8174011468        0.7385591451
 O          0.1834518953        0.4855437650       -1.4051735141
 C          0.7793917896       -1.6546284082        0.0237347126
 H         -1.9855321321        0.1702802056       -1.0400988237
 H         -2.9538286823        0.5725507038        0.4059950150
 H         -2.4664223487       -1.1169471835        0.1089039801
 H          1.7648410888       -1.7921863912       -0.3995432000
 H          0.7623403000       -1.9505006295        1.0629908990
 H          0.0369625531       -2.1824578095       -0.5583610125
  12
  -22.7806086200000       3.891337966899554E-002 !mtd10
 C         -1.8559469697        0.0874214357        1.1192888686
 O         -1.2499522620        0.0460877721       -0.1542219652
 S          0.3578318365        0.0846537438       -0.1978647630
 O          0.8406714827        0.8167539082        0.9328221274
 O          0.7225488329        0.4991841933       -1.5084563813
 C          0.7750233470       -1.6568607447        0.0082163627
 H         -2.7793488467        0.6589678070        1.0297442257
 H         -1.1811467850        0.5779299305        1.8236146448
 H         -2.0843851034       -0.9257633051        1.4610761022
 H          1.8454008542       -1.7512823157       -0.1122382473
 H          0.4743408829       -1.9622775630        1.0006390166
 H          0.2513658633       -2.2083099908       -0.7595967698
  12
  -22.7806086200000       3.891337966899554E-002 !gc
 C         -1.8559634531        0.0873512944        1.1193898030
 O         -1.2501610172        0.0461229466       -0.1541479747
 S          0.3579764698        0.0846849965       -0.1978769715
 O          0.8406330298        0.8168566021        0.9328538736
 O          0.7226727663        0.4990935201       -1.5085082733
 C          0.7748881270       -1.6568877117        0.0080823024
 H         -2.7788182609        0.6598996110        1.0304771335
 H         -1.1805237145        0.5765270491        1.8240122385
 H         -2.0856515056       -0.9256656074        1.4605886010
 H          0.2506536925       -2.2080616516       -0.7595706725
 H          1.8452094330       -1.7515939268       -0.1129478797
 H          0.4745213136       -1.9624269719        1.0006079151
  12
  -22.7806086200000       3.891337966899554E-002 !mtd4
 C         -1.8562300636        0.0888147489        1.1192286316
 O         -1.2499893505        0.0450444113       -0.1540487640
 S          0.3578598209        0.0844620783       -0.1978941408
 O          0.8402827639        0.8169865453        0.9327574718
 O          0.7223898507        0.4989249615       -1.5085431958
 C          0.7758600119       -1.6568381142        0.0083180276
 H         -1.1813053708        0.5800429326        1.8229190235
 H         -2.0853050244       -0.9236748591        1.4626305989
 H         -2.7792946414        0.6607490041        1.0286451671
 H          0.4748745416       -1.9624275976        1.0005976107
 H          0.2527155368       -2.2084427530       -0.7597406617
 H          1.8463377958       -1.7507746625       -0.1117169438
  12
  -22.7806086100000       3.891296789191016E-002 !mtd12
 C         -2.1681704449       -0.0691524636        0.0091357158
 O         -0.9948617533        0.1742928014        0.7540095898
 S          0.4015312626        0.1065125736       -0.0425968404
 O          1.3538682376        0.8175482174        0.7383610601
 O          0.1835413996        0.4854790022       -1.4051620450
 C          0.7798139311       -1.6546539853        0.0237301385
 H         -2.9534254573        0.5739566977        0.4055907636
 H         -2.4673772407       -1.1161164854        0.1087413388
 H         -1.9849563655        0.1706230226       -1.0401688091
 H          0.7618368566       -1.9509416838        1.0628380643
 H          0.0383755812       -2.1826950553       -0.5595011831
 H          1.7657978353       -1.7914708022       -0.3985562562
  12
  -22.7806085900000       3.891214435051893E-002 !mtd5
 C         -2.1681524678       -0.0696468159        0.0093684239
 O         -0.9946995583        0.1747117332        0.7537601753
 S          0.4015771859        0.1066411154       -0.0427068895
 O          1.3538584117        0.8173992358        0.7386452340
 O          0.1835829946        0.4854843187       -1.4052277033
 C          0.7795492646       -1.6546743001        0.0236945116
 H         -1.9854012612        0.1689364765       -1.0402292928
 H         -2.9534092852        0.5736811266        0.4054213099
 H         -2.4671797415       -1.1164809851        0.1103308012
 H          0.7623987981       -1.9505471179        1.0629282989
 H          0.0372513413       -2.1825994904       -0.5583592326
 H          1.7649913745       -1.7919594334       -0.3995055462
  12
  -22.7806085900000       3.891214435051893E-002 !mtd12
 C         -1.8559356110        0.0876917235        1.1194440532
 O         -1.2501310946        0.0458442248       -0.1541457922
 S          0.3578894749        0.0846376315       -0.1979790084
 O          0.8404990028        0.8167362024        0.9328365507
 O          0.7226355579        0.4991771883       -1.5085557862
 C          0.7751618408       -1.6568357620        0.0083008577
 H         -2.0858959451       -0.9252877046        1.4607405976
 H         -2.7785090716        0.6606663129        1.0302956262
 H         -1.1803178696        0.5768547436        1.8239250205
 H          0.2477866832       -2.2090497055       -0.7564372099
 H          1.8449569194       -1.7519352582       -0.1168667121
 H          0.4787870320       -1.9607316829        1.0024992514
  12
  -22.7806085900000       3.891214435051893E-002 !gc
 C         -1.8564167806        0.0892152735        1.1191175599
 O         -1.2498553158        0.0447374576       -0.1540124534
 S          0.3578456099        0.0844027025       -0.1978824348
 O          0.8402407924        0.8169939289        0.9327722652
 O          0.7222326935        0.4988795271       -1.5085900235
 C          0.7761418581       -1.6567870219        0.0084147226
 H         -1.1806774987        0.5787596762        1.8232005581
 H         -2.0876239130       -0.9229967999        1.4618728567
 H         -2.7782929404        0.6630860655        1.0285883630
 H          1.8462638643       -1.7509687066       -0.1147826443
 H          0.4780654690       -1.9614954389        1.0018593486
 H          0.2506395505       -2.2089293189       -0.7576726016
  12
  -22.7806085800000       3.891173258635927E-002 !mtd2
 C         -2.1683734411       -0.0684713581        0.0090066284
 O         -0.9948485302        0.1737048719        0.7539228292
 S          0.4015679962        0.1064767217       -0.0426314696
 O          1.3538831530        0.8175426860        0.7383479578
 O          0.1831979256        0.4854248875       -1.4051231376
 C          0.7802822067       -1.6546372447        0.0239486396
 H         -2.4689435037       -1.1149556600        0.1091702355
 H         -1.9847936008        0.1705961115       -1.0403477189
 H         -2.9528896853        0.5757898844        0.4050578056
 H          1.7667982187       -1.7913418886       -0.3971976479
 H          0.7612452633       -1.9507317062        1.0631317021
 H          0.0395104092       -2.1828971639       -0.5598668723
  12
  -22.7806085800000       3.891173258635927E-002 !mtd6
 C         -1.8556170044        0.0858263248        1.1194338654
 O         -1.2501004231        0.0474809058       -0.1542793848
 S          0.3578318386        0.0848063261       -0.1979197740
 O          0.8410254962        0.8165084030        0.9329657513
 O          0.7228151107        0.4994310660       -1.5083749152
 C          0.7741736351       -1.6569404754        0.0079933296
 H         -2.7783076595        0.6588620324        1.0319293468
 H         -1.1800069708        0.5734835056        1.8250044328
 H         -2.0853106720       -0.9280897435        1.4582950503
 H          0.4740707460       -1.9621964732        1.0006395478
 H          0.2499889957       -2.2082606461       -0.7595685522
 H          1.8444915112       -1.7515650194       -0.1130426752
  12
  -22.7806085000000       3.890843863023146E-002 !mtd7
 C         -2.1685033152       -0.0675938996        0.0089485815
 O         -0.9948290066        0.1732395113        0.7540262261
 S          0.4015715722        0.1063753793       -0.0426418497
 O          1.3536107163        0.8177055586        0.7385036508
 O          0.1829866910        0.4850209056       -1.4051571481
 C          0.7808835075       -1.6546122414        0.0238178496
 H         -2.9533313755        0.5740643172        0.4082679638
 H         -2.4677633236       -1.1147610711        0.1052517873
 H         -1.9860653318        0.1755506532       -1.0396513390
 H          1.7648472922       -1.7914355051       -0.4031195396
 H          0.7680097976       -1.9496916165        1.0633133837
 H          0.0368662466       -2.1835836391       -0.5551071415
  12
  -22.7806085000000       3.890843863023146E-002 !mtd6
 C         -2.1676516783       -0.0715108812        0.0094523411
 O         -0.9947515867        0.1758821303        0.7536330840
 S          0.4016452662        0.1068992364       -0.0426478004
 O          1.3542907981        0.8170921498        0.7385690370
 O          0.1838585682        0.4859867720       -1.4052110740
 C          0.7782155346       -1.6546558341        0.0236933249
 H         -2.4647194818       -1.1188844092        0.1112157475
 H         -1.9855098244        0.1667241482       -1.0403257567
 H         -2.9541188063        0.5705788541        0.4048225116
 H          0.0372815125       -2.1817703665       -0.5610446014
 H          1.7649260380       -1.7922419433       -0.3967338252
 H          0.7581400203       -1.9512725974        1.0627498483
  12
  -22.7806084600000       3.890679175673403E-002 !mtd11
 C         -2.1685745805       -0.0671665824        0.0087791727
 O         -0.9947977319        0.1726943563        0.7540257946
 S          0.4015023861        0.1062324510       -0.0425490425
 O          1.3536746526        0.8178998867        0.7381270429
 O          0.1829849869        0.4852500578       -1.4050296137
 C          0.7810125262       -1.6546506677        0.0240324588
 H         -1.9859475133        0.1770536547       -1.0395435035
 H         -2.9533706851        0.5743447029        0.4086428213
 H         -2.4680263888       -1.1144443149        0.1039724238
 H          0.0405648352       -2.1831131601       -0.5599810144
 H          1.7676406025       -1.7910350544       -0.3968114194
 H          0.7617306061       -1.9508192171        1.0631457235
  12
  -22.7801396300000       2.369005507861628E-002 !mtd4
 C         -2.0055260496        0.6818801487        0.4232053459
 O         -1.1086463240       -0.4122690513        0.4320488320
 S          0.3645083938       -0.0050318904       -0.1069600505
 O          0.9449613042        0.9408102571        0.7931730620
 O          0.2714979392        0.3629096746       -1.4845573381
 C          1.1313383983       -1.6149012012        0.0741988942
 H         -2.1150035999        1.0599652104       -0.5957666536
 H         -1.6215266353        1.4777899301        1.0653145311
 H         -2.9595102730        0.3158887426        0.7986342673
 H          2.1615255308       -1.5390169390       -0.2475378233
 H          1.0678440322       -1.8832045303        1.1188259363
 H          0.5782760184       -2.3035733705       -0.5480143661
  12
  -22.7801396200000       2.368980439298113E-002 !mtd3
 C         -2.0063392717        0.6812401991        0.4199849868
 O         -1.1080105597       -0.4116975393        0.4343272241
 S          0.3646304149       -0.0050074975       -0.1065202114
 O          0.9467441810        0.9407825494        0.7926321996
 O          0.2696859198        0.3630034926       -1.4840145661
 C          1.1313120371       -1.6149147947        0.0743249137
 H         -1.6247624666        1.4798506321        1.0601660824
 H         -2.9605927195        0.3152306096        0.7946772884
 H         -2.1140933277        1.0556287069       -0.6005127126
 H          1.0737528723       -1.8802385128        1.1200514395
 H          0.5741514709       -2.3049698842       -0.5426251007
 H          2.1596435940       -1.5407618459       -0.2536145135
  12
  -22.7801396200000       2.368980439298113E-002 !mtd6
 C         -2.0064718828        0.6811028047        0.4199251343
 O         -1.1079874427       -0.4117138407        0.4343801928
 S          0.3646743831       -0.0049961614       -0.1064400414
 O          0.9468352554        0.9409707797        0.7924908813
 O          0.2698379442        0.3630285428       -1.4839261571
 C          1.1311079733       -1.6150086743        0.0742403356
 H         -2.9606773755        0.3150048472        0.7946601896
 H         -2.1143402838        1.0554159535       -0.6006017988
 H         -1.6250919275        1.4798709510        1.0600306104
 H          1.0718541845       -1.8813556570        1.1196613132
 H          0.5747508909       -2.3043579108       -0.5443330700
 H          2.1599915603       -1.5405698525       -0.2521046533
  12
  -22.7801395900000       2.368905235208098E-002 !mtd11
 C         -2.0053749827        0.6820128707        0.4238208852
 O         -1.1087631499       -0.4124597815        0.4316532174
 S          0.3645076515       -0.0050623368       -0.1071685310
 O          0.9446218539        0.9406933565        0.7932582076
 O          0.2717921593        0.3630964060       -1.4846941407
 C          1.1313565309       -1.6148539663        0.0744181097
 H         -1.6191428346        1.4786681960        1.0636165405
 H         -2.9583016996        0.3168728508        0.8026954608
 H         -2.1177978023        1.0586594319       -0.5953398740
 H          0.5731210794       -2.3053227763       -0.5412218445
 H          2.1592928698       -1.5411568526       -0.2550469502
 H          1.0750132224       -1.8791287097        1.1205363912
  12
  -22.7801395800000       2.368880167705657E-002 !mtd6
 C         -2.0068424239        0.6808764415        0.4184683437
 O         -1.1076536359       -0.4112974551        0.4355341721
 S          0.3647350706       -0.0049387724       -0.1062723254
 O          0.9474765311        0.9408640264        0.7924533247
 O          0.2689645019        0.3627907922       -1.4837662676
 C          1.1312499182       -1.6149505654        0.0741177412
 H         -2.9616289203        0.3142883305        0.7912560342
 H         -2.1126600467        1.0544756283       -0.6025477980
 H         -1.6275015928        1.4803222123        1.0589878509
 H          0.5783257757       -2.3034272701       -0.5484368092
 H          2.1615212015       -1.5390076910       -0.2473521557
 H          1.0676109511       -1.8836043377        1.1186317709
  12
  -22.7801395700000       2.368855100468478E-002 !mtd1
 C         -2.0052881108        0.6821110239        0.4236804023
 O         -1.1087862942       -0.4124026715        0.4317466900
 S          0.3644161364       -0.0051724215       -0.1071500319
 O          0.9446725627        0.9406525311        0.7932201503
 O          0.2716746938        0.3631315444       -1.4846624710
 C          1.1315187284       -1.6147865762        0.0744439126
 H         -2.1161983686        1.0596992282       -0.5953093307
 H         -1.6199166049        1.4781853694        1.0647494334
 H         -2.9588036476        0.3167086981        0.8008284441
 H          1.0769259111       -1.8783249266        1.1208187331
 H          0.5726089850       -2.3058707120       -0.5398432662
 H          2.1589385044       -1.5410929072       -0.2566084841
  12
  -22.7801395600000       2.368830033496558E-002 !mtd12
 C         -2.0064762608        0.6811200037        0.4201439184
 O         -1.1078508858       -0.4114966146        0.4344696698
 S          0.3646609961       -0.0049905196       -0.1065611452
 O          0.9464560891        0.9409231132        0.7927504358
 O          0.2700220162        0.3628061450       -1.4840875087
 C          1.1311936653       -1.6149861284        0.0740480767
 H         -1.6235544865        1.4811122202        1.0577404413
 H         -2.9597132258        0.3156909727        0.7980136096
 H         -2.1169499911        1.0535401922       -0.6007475602
 H          2.1619198544       -1.5387835086       -0.2458825044
 H          1.0660945567       -1.8842742794        1.1183510294
 H          0.5790763791       -2.3030916067       -0.5496055940
  12
  -22.7801394500000       2.368554314338425E-002 !mtd6
 C         -2.0045003852        0.6826706928        0.4264687428
 O         -1.1093691297       -0.4130040574        0.4297890872
 S          0.3642739115       -0.0053123170       -0.1075461881
 O          0.9431385853        0.9407791834        0.7934792274
 O          0.2733487592        0.3633535169       -1.4850905269
 C          1.1314483896       -1.6148403279        0.0745033696
 H         -2.1186857289        1.0619476023       -0.5915191846
 H         -1.6157063638        1.4772628946        1.0672781243
 H         -2.9571212259        0.3179724524        0.8065358179
 H          0.5747523423       -2.3052276390       -0.5425728400
 H          2.1599418045       -1.5404072243       -0.2530007850
 H          1.0733771152       -1.8798100538        1.1203361667
  12
  -22.7801394100000       2.368454060782517E-002 !mtd12
 C         -2.0071611144        0.6806210246        0.4172837692
 O         -1.1074508696       -0.4110860820        0.4363829865
 S          0.3648166927       -0.0048365251       -0.1061447415
 O          0.9481592224        0.9407674239        0.7923615536
 O          0.2682289946        0.3627100750       -1.4836233118
 C          1.1312668786       -1.6149422462        0.0741409976
 H         -2.9606929424        0.3153023638        0.7944858818
 H         -2.1161274761        1.0499282814       -0.6049292497
 H         -1.6262718617        1.4828865425        1.0532682176
 H          2.1627219805       -1.5381416769       -0.2435630512
 H          1.0639941151       -1.8850867975        1.1181316378
 H          0.5806626228       -2.3026901294       -0.5513601406
  12
  -22.7795637600000       1.287996083323237E-002 !mtd3
 C         -1.9544221564        0.5342910391        0.8986890131
 O         -1.2049591858       -0.3170821852        0.0569445660
 S          0.3594022586        0.0219502250       -0.1747750669
 O          0.8013075645        0.8956797489        0.8688417959
 O          0.5662470836        0.4215249105       -1.5281137887
 C          1.0288405081       -1.6271480706        0.0638137760
 H         -1.2731242825        1.0992255398        1.5377100918
 H         -2.6123096652       -0.0902429631        1.5040784022
 H         -2.5486523475        1.2239737988        0.2957654939
 H          0.4810703401       -2.2888255318       -0.5916222549
 H          2.0780457837       -1.6038177492       -0.1978872049
 H          0.8918318902       -1.8910402706        1.1026599848
  12
  -22.7793756900000       1.055561531780921E-002 !mtd7
 C         -2.0026274240        0.6884547020        0.4219868101
 O         -1.1115730864       -0.4103337202        0.4326847105
 S          0.3644050920       -0.0071242663       -0.1066926035
 O          0.9417542655        0.9414334864        0.7930263418
 O          0.2675035517        0.3628163343       -1.4837852307
 C          1.1399500502       -1.6193805909        0.0732341886
 H         -1.6149421083        1.4823665141        1.0641912799
 H         -2.9592123348        0.3280753338        0.7961412681
 H         -2.1081782958        1.0661960925       -0.5974297725
 H          0.3763470245       -2.2846797645        0.4501383866
 H          1.4881654401       -1.9370511834       -0.8998336036
 H          1.9563197342       -1.5246028268        0.7757372400
  12
  -22.7793189500000       9.940486872758749E-003 !mtd1
 C         -1.8544703235        0.0926691839        1.1203626531
 O         -1.2528147171        0.0520542141       -0.1550866388
 S          0.3558297026        0.0824134324       -0.1984538602
 O          0.8369702641        0.8150710992        0.9330812690
 O          0.7202050046        0.5013456816       -1.5079814445
 C          0.7871598163       -1.6634219669        0.0082138537
 H         -2.0584788942       -0.9209831417        1.4772221650
 H         -2.7906122712        0.6422064826        1.0275084351
 H         -1.1878625011        0.6046838743        1.8170509129
 H          1.4579660670       -1.7392284583        0.8527579279
 H         -0.1200424900       -2.2251928207        0.1805782882
 H          1.2681143535       -1.9876172992       -0.9038335039
  12
  -22.7793169500000       9.919471175422761E-003 !gc
 C         -1.8544856964        0.0933354235        1.1203022892
 O         -1.2527802534        0.0516913344       -0.1550336418
 S          0.3556798805        0.0822805698       -0.1984389215
 O          0.8367936439        0.8150987940        0.9329940960
 O          0.7201621667        0.5012229682       -1.5079691225
 C          0.7876930286       -1.6633468228        0.0082244618
 H         -2.7924539981        0.6394655222        1.0260500240
 H         -1.1893946325        0.6088149751        1.8157415365
 H         -2.0554686001       -0.9200467206        1.4793355435
 H          1.2349012539       -1.9975657013       -0.9171693187
 H          1.4875307842       -1.7339441570        0.8293079642
 H         -0.1144993165       -2.2201953823        0.2184831396
  12
  -22.7793168000000       9.917896790411202E-003 !gc
 C         -1.8541796482        0.0929461667        1.1204591026
 O         -1.2528697104        0.0518856317       -0.1550730914
 S          0.3556629214        0.0823246195       -0.1984867292
 O          0.8367918100        0.8151569559        0.9329481334
 O          0.7203751682        0.5013690491       -1.5079202350
 C          0.7873100201       -1.6634406347        0.0082171077
 H         -2.7930284329        0.6375808696        1.0263277964
 H         -1.1897651005        0.6096260750        1.8156387989
 H         -2.0535044447       -0.9206219869        1.4798771695
 H          1.4764713033       -1.7359576974        0.8381100536
 H         -0.1169616977       -2.2220303175        0.2045035924
 H          1.2469284050       -1.9940393346       -0.9123891133
  12
  -22.7793165700000       9.915483218662126E-003 !gc
 C         -1.8537256830        0.0906783024        1.1205463745
 O         -1.2527877613        0.0538022594       -0.1552736795
 S          0.3556676933        0.0826539333       -0.1984382834
 O          0.8373089567        0.8147553900        0.9332479947
 O          0.7205592501        0.5015666172       -1.5078588791
 C          0.7860408395       -1.6634679600        0.0078536780
 H         -2.7943637970        0.6323738987        1.0275461745
 H         -1.1907338949        0.6083405300        1.8163691959
 H         -2.0496666958       -0.9240761372        1.4785097452
 H         -0.1174124782       -2.2204057498        0.2124101384
 H          1.2377380969       -1.9963170839       -0.9158654155
 H          1.4817096588       -1.7356677300        0.8322985707
  12
  -22.7793161800000       9.911391982790223E-003 !gc
 C         -2.1677555174       -0.0636649282        0.0062188910
 O         -0.9972223135        0.1804769702        0.7548484408
 S          0.4002356029        0.1045877329       -0.0405293325
 O          1.3521043885        0.8194625376        0.7380213179
 O          0.1796147505        0.4837255042       -1.4029129590
 C          0.7907840117       -1.6619308414        0.0194176969
 H         -1.9944735271        0.2152711740       -1.0349152899
 H         -2.9642910702        0.5472881731        0.4294377252
 H         -2.4449966203       -1.1199636953        0.0667487802
 H          1.6755256238       -1.7771147029        0.6293801297
 H         -0.0460008843       -2.1860654352        0.4591362339
 H          0.9678299035       -1.9942303974       -0.9940831231
  12
  -22.7793161500000       9.911077342279700E-003 !gc
 C         -2.1676133090       -0.0641055819        0.0062210882
 O         -0.9972231641        0.1807725054        0.7548344847
 S          0.4002323148        0.1046549006       -0.0405254664
 O          1.3522097669        0.8193955699        0.7380201546
 O          0.1796674712        0.4838271387       -1.4029067150
 C          0.7904825548       -1.6619460979        0.0194028369
 H         -1.9947213725        0.2154773259       -1.0348039613
 H         -2.9646331131        0.5459183754        0.4298567978
 H         -2.4438885978       -1.1206869250        0.0662516269
 H         -0.0448034908       -2.1854256044        0.4627544494
 H          0.9637380616       -1.9951736055       -0.9944367851
 H          1.6774081081       -1.7768695777        0.6262511428
  12
  -22.7783144900000       3.433917061930261E-003 !mtd5
 C         -2.1912079379        0.3506103191        0.0676427914
 O         -1.0278315819       -0.1419961365        0.6990851556
 S          0.3937326758        0.0467254953       -0.0496970559
 O          1.2281098841        0.8963356192        0.7349920392
 O          0.1491179753        0.4026683674       -1.4144147458
 C          1.0163173199       -1.6435617637        0.0457690487
 H         -2.9673321535       -0.4119719475        0.1466938690
 H         -1.9701084623        0.5586177266       -0.9807954526
 H         -2.5195036032        1.2663411392        0.5632360382
 H          0.2190422114       -2.2686597269        0.4209773347
 H          1.3068627604       -1.9411925151       -0.9523015974
 H          1.8615986554       -1.6478325371        0.7193548189
