! pbe def2-sv(p) def2/J RI DEFGRID1 loosescf d4 GCP(DFT/SV(P)) printgap
%output
    printlevel normal
end
* xyz 0 1
C 2.8065358844 -0.8901973692 1.1321574162
C 2.5517586651 0.0373533943 -0.0179173272
C 3.5382776801 0.5098716935 -0.7643154966
C 1.116268841 0.408833605 -0.302569138
H 1.1196394838 1.2043830546 -1.0534326308
C 0.3330168607 -0.7938563023 -0.8777754774
C -0.9636016532 -1.0955003689 -0.1117387662
C -1.7070330209 0.1763950139 0.1578699762
C -1.0107085463 1.19796923 0.6872904629
C 0.4308554963 0.9901459264 0.9569753509
C -3.1101580856 0.2921889803 -0.1686685351
O -3.7994540513 -0.5782644772 -0.6716313443
H 2.7761678726 -0.3393237488 2.0715036466
H 2.0576234291 -1.67706972 1.175575378
H 3.7891073016 -1.3452964783 1.0431536156
H 3.3623193836 1.1878118683 -1.5823799529
H 4.5651236606 0.2367166411 -0.5892007225
H 0.0768447373 -0.5831896336 -1.9166432382
H 0.9593565335 -1.686255379 -0.8766671153
H -1.5930893266 -1.7799357582 -0.681636329
H -0.7207260085 -1.5717191626 0.8417754481
H -1.4700714498 2.1523482049 0.8945404847
H 0.9278034288 1.912673576 1.252515341
H 0.5291367987 0.2647669985 1.768068122
H -3.5579218665 1.2742867781 0.0760768341
*
