  21
        -24.04943153
 C         -3.4321166001       -0.7026502026        0.1169141584
 C         -2.3656781960        0.3322363324       -0.2147026802
 C         -0.9712068092       -0.1509977290        0.1699275950
 O         -0.0406163012        0.8509585451       -0.1783038953
 C          1.2597297295        0.6579747644        0.3250027198
 C          2.0366342129       -0.4756987960       -0.3521027609
 C          3.4923572740       -0.4870946903        0.0948249702
 H         -3.2430071810       -1.6319748565       -0.4161416231
 H         -3.4405475059       -0.9157884609        1.1837278368
 H         -4.4151428279       -0.3367913920       -0.1681904072
 H         -2.5678412620        1.2648078408        0.3139866640
 H         -2.3704197246        0.5493078257       -1.2835996778
 H         -0.9228719802       -0.3469862179        1.2533584708
 H         -0.7477566213       -1.0914195633       -0.3557925620
 H          1.2222707751        0.4813698483        1.4121518694
 H          1.7714819571        1.6077737470        0.1448004493
 H          1.5753237976       -1.4349554087       -0.1086454389
 H          1.9786558119       -0.3371322214       -1.4334109763
 H          3.5593825233       -0.6169204849        1.1729657959
 H          4.0299945345       -1.3020452226       -0.3836082829
 H          3.9802249005        0.4487109512       -0.1679461891
