  31
        -57.59956090
 C         -1.5578777634        2.8293537453        0.4015777585
 O         -2.1291003956        1.6545129894        0.9537639612
 P         -2.4228786265        0.3463952464        0.1094664036
 S         -2.4175561704        0.4042937932       -1.8474535008
 O         -3.9008976384        0.1458830073        0.7135107427
 C         -4.7092008415       -0.9245747143        0.2630264890
 S         -1.4546260734       -1.3308554026        1.0354378036
 C         -0.4241587315       -1.8380846857       -0.3817433817
 N          0.9203748258       -1.3572981132       -0.2562767797
 C          1.1176439867        0.0134944179       -0.1699349269
 O          0.1710946813        0.7803059688       -0.1901681900
 C          2.5200413649        0.3809805703       -0.0513596437
 C          2.9388743128        1.7102106155        0.0142056813
 C          4.2816382396        1.9921800979        0.1296167431
 C          5.2209517388        0.9599759423        0.1812199556
 C          4.8264292533       -0.3563747096        0.1158042308
 C          3.4658337450       -0.6620399927       -0.0023434398
 N          3.0734112958       -1.9762289652       -0.0681803931
 N          1.8809799780       -2.2846535012       -0.1858138027
 H         -2.2395698104        3.6552994873        0.6079380227
 H         -1.4159997363        2.7245810964       -0.6758028278
 H         -0.5948877969        3.0086898566        0.8785454646
 H         -4.3389864994       -1.8783982858        0.6463731781
 H         -4.7288083180       -0.9559002481       -0.8297952934
 H         -5.7106433309       -0.7361523338        0.6459533792
 H         -0.8932131498       -1.4186453172       -1.2841027687
 H         -0.3933377211       -2.9256799185       -0.4105979831
 H          2.1952002371        2.4910382760       -0.0326476486
 H          4.6137404150        3.0179908492        0.1802125329
 H          6.2691819607        1.2021952309        0.2723650750
 H          5.5348633967       -1.1681746681        0.1510749863
