! pbe def2-sv(p) def2/J RI DEFGRID1 loosescf d4 GCP(DFT/SV(P)) printgap
%output
    printlevel normal
end
* xyz 0 1
C 1.6800498254 1.4799605888 0.4456979637
C 1.4551580329 -0.0277111217 0.4088045332
C 0.3627702616 -0.5067329376 -0.5579792902
H 0.588038368 -0.087462964 -1.5459828402
C 0.4529932652 -2.0318625155 -0.6722530214
C -1.0875313508 -0.0981269731 -0.2068235607
C -1.3960653369 -0.1590987848 1.2879164846
C -1.4666670138 1.2724288092 -0.7699928409
H 2.5934530716 1.7029719251 0.993542558
H 1.7810177064 1.8763419124 -0.5621564179
H 0.8623481605 1.995590939 0.9409064642
H 1.2415947555 -0.3902384841 1.4149701637
H 2.3903997069 -0.4969294893 0.0914270836
H 1.4529689659 -2.3350416318 -0.9741970323
H 0.230436895 -2.5013293367 0.2832458109
H -0.2522146427 -2.4058022553 -1.4109758522
H -1.7384712378 -0.8290241665 -0.7028307587
H -1.1203065495 -1.1252851902 1.7029771036
H -2.4624094648 -0.0147117415 1.448611325
H -0.8661999236 0.618706696 1.8308632615
H -2.5257683903 1.4597902899 -0.6041781877
H -1.2788320796 1.3103488471 -1.8407919525
H -0.9044887058 2.0698748183 -0.2952474696
*
