! r2scan-3c def2/J RI DEFGRID2 scfconv6 printgap
%output
    printlevel normal
end
* xyz 0 1
C -2.2764861776 0.2940090037 1.099601995
C -1.8277364104 0.4246642887 -0.3592061079
C -0.454400886 -0.1772711692 -0.5054954174
O -0.2338679472 -1.3417536045 -0.7674743122
O 0.4956309217 0.7224535038 -0.2883852499
C 1.8678213136 0.2956437889 -0.3179517268
C 2.322640846 -0.1747734756 1.055123742
H -1.6000727053 0.8392474754 1.7527410007
H -3.2773011909 0.6994084713 1.2127343224
H -2.2855341002 -0.7517176217 1.3978693359
H -1.7856964048 1.4747968223 -0.6435375853
H -2.5139777502 -0.1170846203 -1.0089932432
H 1.9664279245 -0.5082642431 -1.0537838141
H 2.4246750112 1.1758467623 -0.6407887638
H 3.374613413 -0.4378473096 1.0147339009
H 2.1777122079 0.613988889 1.7884210027
H 1.7512550051 -1.0498134633 1.3572650817
*
