  8
        -32.10543237
 C          0.6965666775        0.5531359153        0.2081494143
 C         -0.5724099443       -0.1557187983       -0.3138050340
 F         -0.4882723577       -0.2870974680       -1.6491153048
 Cl        -2.0013377399        0.8226569103        0.0738683186
 Cl        -0.6889757559       -1.7616243668        0.4172621212
 F          0.7835201505        1.7883781987       -0.2972649015
 F          0.6379011247        0.6841061145        1.5368210373
 Cl         2.1481990648       -0.3667677543       -0.2358629430
  8
        -32.10521020
 C          0.7214799612        0.6431023532       -0.0051836364
 C         -0.6089800590       -0.0247911094       -0.4211210529
 F         -1.1691560069        0.6894754494       -1.4144696637
 Cl        -1.7132981055       -0.0445991576        0.9609374016
 Cl        -0.2857072383       -1.6623709692       -1.0073889492
 F          1.5515275878        0.7138495211       -1.0516091249
 F          0.5036548484        1.9008732615        0.3942880062
 Cl         1.4860918854       -0.2731448434        1.3011001140
