! r2scan-3c def2/J RI DEFGRID2 scfconv6 printgap
%output
    printlevel normal
end
* xyz 0 1
C -1.7690794767 0.7932460493 -0.3672562806
C -1.1627633036 -0.2769731724 0.5447555448
N -0.0240503241 -1.0011508208 0.0031364699
C 1.2971281649 -0.4716724866 0.2777374494
C 1.6657751083 0.8602746865 -0.3870030518
H -2.0776473718 0.3476843618 -1.3111158156
H -2.6442091752 1.2279568489 0.1089982215
H -1.0603139406 1.5892925161 -0.5773848695
H -1.9388672781 -1.0215277301 0.7601344597
H -0.8587761849 0.1689453294 1.4948150952
H -0.1465735783 -1.1359853736 -0.9948986141
H 1.3898257123 -0.3730345047 1.363239236
H 2.0082620035 -1.2363711243 -0.0494632182
H 2.720173866 1.0688891038 -0.2251968837
H 1.4831800354 0.8135410282 -1.458951032
H 1.0890374271 1.6803637949 0.033157894
*
