! pbe def2-sv(p) def2/J RI DEFGRID1 loosescf d4 GCP(DFT/SV(P)) printgap
%output
    printlevel normal
end
* xyz 0 1
C 2.7738707694 -0.0807551336 -0.2638928729
C 1.3526672475 -0.0588652653 -0.8144486619
C 0.3138115938 -0.2151392093 0.3004660517
H 0.6270313348 -1.0544611168 0.9448934997
C -1.0935045525 -0.5436370877 -0.2476683619
C -2.0690975846 -0.8281469699 0.8960110522
C -1.6291634788 0.5831355222 -1.1285824178
O 0.3305243197 0.9826996382 1.0574772166
H 3.4918710282 0.0875654054 -1.0621212464
H 2.9895503063 -1.0402785811 0.2011995966
H 2.8910336798 0.7010874714 0.4822564217
H 1.1764674195 0.8948048345 -1.3120581747
H 1.2212716528 -0.8636836957 -1.538693509
H -0.9937584047 -1.454194918 -0.8478455161
H -1.6622799344 -1.5746865651 1.5752475963
H -2.2842842649 0.0803516534 1.4540886941
H -3.0078578554 -1.2051646991 0.4980771886
H -1.5514405646 1.5321970213 -0.6026463783
H -2.6727169294 0.4037892075 -1.3745927373
H -1.0656472359 0.655007162 -2.0544317789
H -0.2182075524 0.8641283977 1.8430166743
*
