! pbe def2-sv(p) def2/J RI DEFGRID1 loosescf d4 GCP(DFT/SV(P)) printgap
%output
    printlevel normal
end
* xyz 0 1
C -2.127346559 1.1649236256 0.1701085927
C -1.0850164321 0.047268609 0.2084019109
C -1.7741868357 -1.3019040187 0.0069397046
C 0.0049467141 0.2861448873 -0.8532392109
C 1.4542482729 0.0713213789 -0.3891307891
C 1.8734501199 1.1060439564 0.6542781546
C 1.7010412607 -1.3435135997 0.1292237048
H -1.6659025544 2.128103777 0.3757347314
H -2.5989783241 1.2092722969 -0.8095435731
H -2.9013592651 0.9907913713 0.9146140646
H -0.6287141408 0.0518126225 1.2023767098
H -2.2898882947 -1.3216842529 -0.9513038607
H -1.0544069484 -2.1152059642 0.0266763063
H -2.5077828547 -1.4748694268 0.7918536576
H -0.0704922583 1.3139814983 -1.2152474914
H -0.1842744601 -0.367490146 -1.707627191
H 2.0885592976 0.2179345761 -1.2724607202
H 1.300255491 0.9935541126 1.571078885
H 2.9267556786 0.988191131 0.8984642801
H 1.7197645852 2.113869559 0.275374843
H 1.4167694283 -2.0796188072 -0.6192384214
H 2.7559370551 -1.4795593606 0.3578382196
H 1.1320381566 -1.5299830759 1.0363205492
*
