! r2scan-3c def2/J RI DEFGRID2 scfconv6 printgap
%output
    printlevel normal
end
%cpcm
    smd true
    smdsolvent "water"
end
* xyz 0 1
C 0.2205883197 -3.376903423 0.1200535564
C 0.6808396032 -1.9552478261 0.0656985159
C 2.0226985447 -1.5891197357 -0.0788820931
N 2.4148693775 -0.3239622483 -0.1231848186
C 1.4817218642 0.631897493 -0.0267611896
N 0.1640206685 0.3847892674 0.107065386
C -0.2028641808 -0.8808093054 0.1541992701
O -1.5444064176 -1.1248052138 0.2667366055
C -2.2955936571 -0.0004452733 0.6192213235
O -2.4766835762 0.2530505037 1.7960743827
N -2.80628363 0.6671763892 -0.4061481769
C -3.5719213833 1.8735009463 -0.169026093
C -2.543946221 0.3528842647 -1.7937559511
N 1.8684557969 1.9116112747 -0.0801190462
C 3.2518580767 2.2815199261 -0.2548056321
C 0.9276365388 2.998425284 0.0399444771
C 3.0927853786 -2.6248414518 -0.1924162656
H 0.4178989918 -3.8799318073 -0.8257116096
H 0.7447523101 -3.9167702892 0.9068122014
H -0.8469343085 -3.4082374053 0.3209629119
H -3.0733233748 2.7195414657 -0.6414621261
H -3.6379334892 2.0380010278 0.9035091815
H -4.5726190943 1.7607190951 -0.5847949592
H -2.2420868575 -0.6862967482 -1.8938207257
H -1.7500848988 0.9953619924 -2.1799194209
H -3.4555022627 0.5196449123 -2.3641653596
H 3.8424359868 1.3776404141 -0.3645713499
H 3.5997728583 2.8443105866 0.6133093406
H 3.3557883241 2.9031131873 -1.1455091259
H -0.0459177347 2.594452192 0.3029501363
H 0.858753101 3.5425981981 -0.9043255161
H 1.2600215537 3.6839114598 0.8206346999
H 4.0538476497 -2.139211581 -0.3240085657
H 3.1142367606 -3.2360200748 0.7073688675
H 2.891057314 -3.2777526375 -1.038414597
*
