! pbe def2-sv(p) def2/J RI DEFGRID1 loosescf d4 GCP(DFT/SV(P)) printgap
%output
    printlevel normal
end
* xyz 0 1
C -1.0600493367 -0.2088872717 0.702927763
C 0.2263722202 0.5607051744 0.3334476293
C 1.178476959 -0.3489067833 -0.4644048665
O 1.6925381398 -1.406341704 0.3077470937
O -0.0596578111 1.7411591451 -0.3834890516
O -1.920747497 -0.3581461134 -0.404510227
H -1.575092484 0.2954190831 1.5269938295
H -0.7793717444 -1.2159601124 1.018251141
H 0.7158212298 0.8900504573 1.2557275292
H 1.9861069985 0.2612972112 -0.8888252369
H 0.6210473142 -0.8198766367 -1.2794792736
H 2.2853139728 -1.0532133087 0.985865002
H -0.4216234191 1.4945058954 -1.2479109497
H -2.3714569854 0.4833925632 -0.5630723514
*
