  9
  -13.8182754300000        1.00000000000000      !md1
 C          1.3103181968       -0.7072442795       -0.0000821172
 C          1.3102732878        0.7073432180        0.0000890594
 C          0.0572646589        1.2257814363       -0.0000300894
 S         -1.1482058903       -0.0000345629        0.0000086403
 C          0.0573957502       -1.2258041297       -0.0000183959
 H          2.2042029174       -1.3049250537       -0.0000037395
 H          2.2041186735        1.3050630598        0.0001236760
 H         -0.2406393507        2.2552826686       -0.0002687274
 H         -0.2403379128       -2.2552298763        0.0003690155
