! r2scan-3c def2/J RI DEFGRID2 scfconv6 printgap
%output
    printlevel normal
end
* xyz 0 1
C 2.0800084961 0.1689333054 -1.1122641709
C 1.6654775393 -0.5670481823 0.1561842408
C 0.2760441567 -0.1834402382 0.6980166075
H 0.1257654468 -0.7850713373 1.612213723
C -0.8878412481 -0.5213699752 -0.2638097595
C -2.1152285753 -0.9567563229 0.5382130378
C -1.2694119642 0.651228393 -1.1659157941
O 0.2060361616 1.1877231547 1.0449444348
H 1.9231389769 1.2384476749 -0.9937454242
H 1.5062005447 -0.1769303296 -1.9674070537
H 3.1335782833 -0.0069991396 -1.3162585258
H 1.6750973593 -1.6442215866 -0.0184041623
H 2.3971264386 -0.3558556961 0.941286763
H -0.5663938896 -1.3613356197 -0.8881663776
H -2.421501047 -0.1563676612 1.2080148878
H -2.9418438178 -1.1834338707 -0.1304826798
H -1.8982063507 -1.8431965815 1.1301742004
H -0.4328742823 0.9756199184 -1.7749043242
H -1.5932392464 1.4920963346 -0.5586439788
H -2.0848020713 0.3566049997 -1.8223337947
H 0.8978908018 1.3810639516 1.6905442402
*
