  19
        -23.02939602
 C          1.4015170982       -1.1291210711        0.8833593310
 C          1.2433573669       -0.0944935603       -0.2277670555
 C          2.4944360359        0.7722574146       -0.3371045718
 C          0.0102220960        0.7760288920        0.0329434626
 C         -1.2943325276        0.0298694808       -0.1519510390
 O         -1.4016530885       -0.9550291844       -0.8363052881
 C         -2.4627690328        0.6376149101        0.5863404781
 H          1.5426237754       -0.6389262231        1.8454623716
 H          0.5195485268       -1.7621695950        0.9398818153
 H          2.2641588359       -1.7627203206        0.6921321900
 H          1.0880238273       -0.6220348107       -1.1740055113
 H          2.4030949288        1.4854009852       -1.1535970192
 H          3.3688746416        0.1530149068       -0.5216749827
 H          2.6563660524        1.3249494274        0.5866538026
 H         -0.0081823090        1.6054451665       -0.6812458804
 H          0.0499505628        1.2075427422        1.0349147084
 H         -2.4762359264        1.7171960689        0.4603760487
 H         -3.3968346505        0.2081879087        0.2341237231
 H         -2.3549548464        0.4208608651        1.6479734098
