! r2scan-3c def2/J RI DEFGRID2 scfconv6 printgap
%output
    printlevel normal
end
%cpcm
    smd true
    smdsolvent "water"
end
* xyz 0 1
C -1.1631079708 0.1575787881 -0.4866264202
C -0.033261744 0.5375490475 0.4922247539
C 0.9951257401 -0.5920833699 0.6445643285
O 1.5310328718 -0.8823607268 -0.6310932304
O 0.5966359678 1.7276639403 0.0776870093
O -2.0437564056 -0.8110855339 0.0313515392
H -0.7227687118 -0.1736433202 -1.4342520054
H -1.7664006671 1.0501244116 -0.6692347583
H -0.472430156 0.7529060207 1.471906862
H 0.5090641539 -1.473716239 1.0788517001
H 1.7814764656 -0.2488300251 1.3273924459
H 2.2376979027 -1.5350257722 -0.5428169922
H 1.1073963746 1.5311390725 -0.7226353893
H -1.6079615673 -1.6739931459 0.0301375172
*
