! pbe def2-sv(p) def2/J RI DEFGRID1 loosescf d4 GCP(DFT/SV(P)) printgap
%output
    printlevel normal
end
* xyz 0 1
C 2.0076926708 -0.984554932 0.2229012599
C 1.215498077 0.1240017328 0.9090602722
C 0.1685156571 0.8284120033 0.0280350732
H -0.0497605125 1.7945946257 0.5194296782
C -1.1957586599 0.1193428227 -0.1384077826
C -1.0977293054 -1.2520908514 -0.801641136
C -1.9488922437 0.0277772839 1.1865654358
O 0.767313869 1.0880476624 -1.2311429581
H 1.4026398002 -1.8668908207 0.0465842012
H 2.8503456277 -1.2669071028 0.8498236239
H 2.3875697874 -0.6271934598 -0.7301975258
H 0.7231178989 -0.2586659915 1.8021915508
H 1.9256113123 0.8917232178 1.2247524322
H -1.7791180492 0.768754509 -0.8057316256
H -0.7568294647 -1.9999401985 -0.0913223982
H -2.0750896906 -1.5569690418 -1.1692028348
H -0.4059153785 -1.2177366479 -1.639393672
H -2.0119705881 1.0030853481 1.6638973473
H -1.4550663994 -0.6595447252 1.8684385961
H -2.9577977857 -0.3371610135 1.0112573276
H 0.1592845198 1.6119878716 -1.7685845147
*
