! pbe def2-sv(p) def2/J RI DEFGRID1 loosescf d4 GCP(DFT/SV(P)) printgap
%output
    printlevel normal
end
* xyz 0 1
C -1.1722039056 0.1521335502 -0.4784707387
C -0.0382645591 0.5460663852 0.4859455281
C 1.00376808 -0.5827894219 0.628955161
O 1.5638739535 -0.9753553974 -0.605742505
O 0.5665864825 1.7558139158 0.0790253017
O -2.0244270081 -0.8382955191 0.0436213607
H -0.7368776832 -0.1727305229 -1.432583545
H -1.801531775 1.0288482806 -0.6517399126
H -0.4620064263 0.7449872707 1.4755105613
H 0.5171221545 -1.4677396387 1.0434802952
H 1.7812898488 -0.2564613801 1.3270987467
H 2.2429781412 -0.3389451079 -0.8658881968
H 0.8017308747 1.6925347755 -0.8581003335
H -1.5627466068 -1.6876709524 0.0468046847
*
