  12
        -31.10225653
 C         -2.4709400326        0.0010630266        1.2926371535
 O         -1.0612836838       -0.0004080408        0.9638783315
 C         -0.7440893132       -0.0005626210       -0.3146695965
 C          0.7722110019        0.0000442993       -0.5355559490
 Cl         1.4468991835        1.4555818543        0.2046623044
 Cl         1.4483523522       -1.4542931261        0.2056795403
 F         -1.2859623365       -1.0727282265       -0.9958472770
 F         -1.2871978002        1.0701352153       -0.9970080398
 H         -2.4925992656       -0.0072968094        2.3770275530
 H         -2.9474613226       -0.8902206655        0.8852709866
 H         -2.9420468723        0.9013801367        0.8991118678
 H          1.0014306407       -0.0003307321       -1.6036447453
  12
        -31.10133780
 C         -2.7590257159        0.5651905132        1.0706696070
 O         -1.3592533782        0.8312380104        0.8066916615
 C         -0.7598382866        0.0593200128       -0.0829845030
 C          0.7071518978        0.4760113992       -0.2447009753
 Cl         1.4997972307        0.3440131095        1.3281611582
 Cl         1.5022521161       -0.5604645010       -1.4411482697
 F         -0.8530015986       -1.2750091217        0.2280517199
 F         -1.3761106740        0.1204058399       -1.3175954389
 H         -3.3389080055        0.6935477004        0.1572189882
 H         -3.0342696386        1.3048579614        1.8144236948
 H         -2.8794697429       -0.4446365774        1.4615956565
 H          0.7561978104        1.5139356425       -0.5809445323
  12
        -31.09573087
 C         -1.9575105178        1.4098241198        1.1897192775
 O         -1.6775151126        0.0313217889        0.8568875680
 C         -0.8453050159       -0.1997902576       -0.1574435181
 C          0.5431668809        0.4712498677       -0.0995664651
 Cl         1.2669974483        0.1168709893        1.4772350179
 Cl         1.5583816876       -0.1577606036       -1.4142442139
 F         -0.7095802808       -1.5429426625       -0.2577354161
 F         -1.4203303148        0.1731203598       -1.3637085613
 H         -1.1039004189        1.8564023124        1.6978479236
 H         -2.8072751863        1.3484059510        1.8627273136
 H         -2.2241905570        1.9686246000        0.2932901902
 H          0.4566561656        1.5526653481       -0.2232738813
  12
        -31.09493546
 C         -1.4135064918        0.3777405732        1.7149968421
 O         -1.5111197089       -0.4651189917        0.5471387185
 C         -0.8162661350       -0.1265963160       -0.5342269657
 C          0.7240956502       -0.0286092850       -0.4507638213
 Cl         1.2392871406        1.5026106908        0.2687872971
 Cl         1.3159338099       -1.4109449716        0.4861243642
 F         -1.1029011677       -1.0589433192       -1.4837066534
 F         -1.2766433666        1.0537116342       -1.0883638715
 H         -1.5865946536        1.4195275103        1.4465052057
 H         -0.4423624351        0.2572321509        2.1937259421
 H         -2.2041592193        0.0153992428        2.3646258985
 H          1.1364681794       -0.0865159672       -1.4613430126
  12
        -31.09350377
 C         -1.9491808440        0.6956767751        1.7025206911
 O         -1.8115044654        0.7643763195        0.2667777648
 C         -0.8514883900        0.0528608747       -0.3304271050
 C          0.6093548440        0.4885566927       -0.0662423149
 Cl         1.1472959108       -0.0697166185        1.5216005713
 Cl         1.6719153806       -0.1942544942       -1.3228936072
 F         -0.9760521834       -1.2915524519       -0.0747558240
 F         -1.0905849072        0.1648099484       -1.6651417978
 H         -2.9264520110        1.1299373520        1.8902950138
 H         -1.1695041940        1.2792956453        2.1891070270
 H         -1.9217770352       -0.3395360392        2.0399863740
 H          0.6759257602        1.5782159211       -0.1091039248
