! pbe def2-sv(p) def2/J RI DEFGRID1 loosescf d4 GCP(DFT/SV(P)) printgap
%output
    printlevel normal
end
* xyz 0 1
C 2.6387700121 -0.8147053876 -0.0348715711
C 1.9792843534 0.538395692 -0.2782609346
C 0.5693308851 0.634319034 0.3079436743
C -0.4138346239 -0.2882687373 -0.3940345533
S -2.1398497427 0.0081690799 0.1424821841
H 2.6495444932 -1.0473489848 1.0275143083
H 3.6653724628 -0.8000801842 -0.3923284316
H 2.1109020306 -1.6077280487 -0.5579916954
H 1.9377874172 0.7364284243 -1.351501354
H 2.5912541043 1.3184089228 0.1789478955
H 0.2113824599 1.6621845028 0.2114689241
H 0.6010501061 0.3897840551 1.37219565
H -0.4276997937 -0.1014420951 -1.4679369463
H -0.1956729728 -1.3393797016 -0.2153354868
H -1.9528148722 -0.3017399748 1.4194899537
*
