! pbe def2-sv(p) def2/J RI DEFGRID1 loosescf d4 GCP(DFT/SV(P)) printgap
%output
    printlevel normal
end
* xyz 0 1
C -1.4917275646 1.1694144173 -0.5194103831
C -1.2061530943 0.3794405094 0.753038761
C -0.0809118914 -0.6592564892 0.632361393
H -0.0818418742 -1.2351611617 1.5662141218
C -0.3004871383 -1.6233571356 -0.5312247457
C 1.3135178333 -0.0220471399 0.545408567
O 1.5130933149 0.6274425209 -0.6939997281
H -1.9106943682 0.5260514169 -1.2881187866
H -2.207641472 1.9611508972 -0.3099488212
H -0.5791040798 1.6146697757 -0.9035937934
H -2.1173173063 -0.1413928089 1.0577929175
H -0.9435807692 1.0753582271 1.5538222695
H -1.3084153534 -2.0286062338 -0.5017924605
H 0.4078239519 -2.4467888265 -0.4746787038
H -0.1507756813 -1.1072812982 -1.4750341772
H 2.062231015 -0.8168571282 0.6719525418
H 1.4307559229 0.696008183 1.3699358611
H 2.422054866 0.9496592075 -0.7389051383
*
