! r2scan-3c def2/J RI DEFGRID2 scfconv6 printgap
%output
    printlevel normal
end
* xyz 0 1
C -2.4251855833 0.2751357876 -0.1385857116
C -0.9656140704 0.6805914842 -0.3064009028
C -0.036640067 -0.1860880928 0.5481167842
C 1.3845689372 0.3920952625 0.6486479438
C 2.0665729636 0.5417381633 -0.7071047852
O -0.0305246345 -1.4872086447 -0.016986677
H -2.546101514 -0.7758105537 -0.3890083284
H -2.7487869182 0.4263456281 0.889004759
H -3.060231043 0.8658497588 -0.793396647
H -0.6780924479 0.5606048851 -1.3509334674
H -0.8338780437 1.7251720332 -0.0220686756
H -0.4549196837 -0.2390846757 1.5682107664
H 1.329125593 1.3594734092 1.1497771479
H 1.9810366466 -0.2734109953 1.2782423893
H 1.6119976505 1.3427307569 -1.2832186702
H 3.1210158773 0.769751795 -0.5744100303
H 1.977387852 -0.3830664472 -1.2724683183
H 0.5035384528 -2.0706515031 0.5375498506
*
