! r2scan-3c def2/J RI DEFGRID2 scfconv6 printgap
%output
    printlevel normal
end
%cpcm
    smd true
    smdsolvent "water"
end
* xyz 0 1
C -3.6004477546 0.1154913903 0.005829409
O -2.3366669531 0.750107129 -0.0006089641
C -1.2186576827 -0.0366247041 -0.0014569344
C -1.2153448144 -1.4262946209 -0.0014339131
C -0.0168280412 -2.1161375466 -0.0017020553
C 1.1939533154 -1.4481436853 -0.0014677354
C 1.2046574004 -0.0611486789 -0.0015756916
C 0.0008370604 0.6507154004 -0.0020467329
O -0.0056964968 2.0161113983 -0.0025617888
O 2.3323092637 0.7282742458 -0.0010014997
C 3.5947347927 0.0920568847 0.006156027
H -4.3244189517 0.9270597136 0.0087017695
H -3.7304451271 -0.4972491588 0.9018427171
H -3.7390788124 -0.4985602307 -0.8879870054
H -2.1421045686 -1.9743470427 -0.0012771877
H -0.0269729269 -3.194284608 -0.001844647
H 2.1140343236 -2.0074627605 -0.001291563
H 0.91541575 2.3248096121 -0.0033887522
H 3.7216312181 -0.5201083489 0.9023767551
H 4.3215216589 0.9011796138 0.0082518122
H 3.7304191112 -0.5232751127 -0.8865906317
*
