  17
  -22.4870281000000       0.123462086456657      !md2
 C          2.7215902183        0.1217147173       -0.7127973607
 C          1.9332985798       -0.1243407862        0.5749267295
 C          0.4584064662       -0.0400128062        0.3099899225
 C         -0.1904226256        1.1893653383        0.2163713378
 C         -1.5444620012        1.2118574574       -0.0649958962
 C         -2.2095197020        0.0082652005       -0.2445667913
 C         -1.4761564497       -1.1615366880       -0.1300715655
 N         -0.1828246510       -1.1880145752        0.1384285035
 H          2.4533004722       -0.6198235572       -1.4612980006
 H          3.7897129910        0.0523832584       -0.5212348580
 H          2.5040101289        1.1098359316       -1.1131192657
 H          2.2173316541        0.6171211200        1.3246385685
 H          2.1610341248       -1.1202790906        0.9550180261
 H          0.3601190845        2.1063187843        0.3660265116
 H         -2.0745757154        2.1508311469       -0.1419311475
 H         -3.2654248236       -0.0200742231       -0.4646707988
 H         -1.9431702534       -2.1301122421       -0.2576868510
  17
  -22.4870280900000       0.123460779994031      !mtd1
 C          2.7217392727        0.1234141008       -0.7124584047
 C          1.9333131575       -0.1253172019        0.5746291740
 C          0.4584365534       -0.0405383991        0.3097248789
 C         -0.1900169821        1.1889909482        0.2158621602
 C         -1.5441039347        1.2118785628       -0.0653888146
 C         -2.2095547177        0.0085096342       -0.2445522115
 C         -1.4765951321       -1.1615033548       -0.1295034240
 N         -0.1832928664       -1.1883741980        0.1388299334
 H          2.5048100035        1.1126532415       -1.1101649301
 H          2.4528018519       -0.6159088742       -1.4628988736
 H          3.7898270429        0.0527906110       -0.5210248013
 H          2.2171882614        0.6147585786        1.3258771388
 H          2.1611282429       -1.1219908628        0.9527733275
 H          0.3607329342        2.1058684752        0.3654961954
 H         -2.0738841758        2.1510660588       -0.1424160210
 H         -3.2654634946       -0.0195755251       -0.4645402864
 H         -1.9440608104       -2.1299150814       -0.2564671365
  17
  -22.4870280900000       0.123460779994031      !mtd1
 C          2.7160124119        0.1245357478        0.7351171466
 C          1.9380581792       -0.1265011720       -0.5578092478
 C          0.4610384039       -0.0411507884       -0.3053285030
 C         -0.1885089221        1.1885293928       -0.2213167542
 C         -1.5450549690        1.2120451391        0.0476599937
 C         -2.2117529366        0.0091047089        0.2250343890
 C         -1.4774094875       -1.1610553371        0.1210943887
 N         -0.1817661763       -1.1885433357       -0.1357134353
 H          2.4411392574       -0.6135888967        1.4845634482
 H          2.4959017886        1.1144777782        1.1294146801
 H          3.7856009171        0.0535671199        0.5523333251
 H          2.1688685153       -1.1238721303       -0.9321897201
 H          2.2281206116        0.6119991776       -1.3081291782
 H          0.3634067944        2.1049720701       -0.3691524230
 H         -2.0757727413        2.1513305959        0.1165311867
 H         -3.2696738583       -0.0186026498        0.4352182743
 H         -1.9457707331       -2.1290606607        0.2476872717
  17
  -22.4870280900000       0.123460779994031      !mtd2
 C          2.7216280589        0.1222947111       -0.7126150586
 C          1.9332859895       -0.1246829289        0.5748763363
 C          0.4584017207       -0.0402071596        0.3098837794
 C         -0.1902705892        1.1892512203        0.2160387949
 C         -1.5443417964        1.2118746032       -0.0650913437
 C         -2.2095307302        0.0083482124       -0.2444213123
 C         -1.4762986486       -1.1615343404       -0.1299133281
 N         -0.1829540029       -1.1881241280        0.1384875190
 H          3.7897898028        0.0528379598       -0.5210622020
 H          2.5038266181        1.1105907294       -1.1121758974
 H          2.4534292149       -0.6185724357       -1.4616930400
 H          2.2171682141        0.6162684216        1.3251799217
 H          2.1611393651       -1.1208613582        0.9542198846
 H          0.3603383102        2.1061875232        0.3655558433
 H         -2.0743297702        2.1509074338       -0.1421491804
 H         -3.2654755142       -0.0199689053       -0.4643861822
 H         -1.9434136123       -2.1300457653       -0.2573931894
  17
  -22.4870280800000       0.123459473545694      !mtd12
 C          2.7162856558        0.1259781806        0.7347575327
 C          1.9380471584       -0.1274100406       -0.5575443904
 C          0.4610095967       -0.0416115715       -0.3051951075
 C         -0.1882785822        1.1882052725       -0.2216613876
 C         -1.5448418641        1.2120887850        0.0472657772
 C         -2.2118280945        0.0093808011        0.2249692797
 C         -1.4777204849       -1.1610070553        0.1214281728
 N         -0.1820904771       -1.1888429793       -0.1352741648
 H          3.7857717905        0.0548912096        0.5518763114
 H          2.4416642471       -0.6109349108        1.4855691551
 H          2.4960702981        1.1166019066        1.1274762947
 H          2.1688074198       -1.1254321359       -0.9302346174
 H          2.2280827338        0.6098156102       -1.3091285632
 H          0.3638422984        2.1044805948       -0.3696246560
 H         -2.0753252712        2.1515316578        0.1158226491
 H         -3.2697393348       -0.0180627913        0.4351996209
 H         -1.9463111428       -2.1288950800        0.2483587215
  17
  -22.4870280500000       0.123455554282239      !mtd3
 C          2.7159326106        0.1216775797        0.7356641341
 C          1.9380917140       -0.1248057412       -0.5582291745
 C          0.4610541889       -0.0400597531       -0.3055696253
 C         -0.1890280132        1.1892623419       -0.2206985259
 C         -1.5455670647        1.2118994832        0.0485116666
 C         -2.2117254038        0.0085517998        0.2251801821
 C         -1.4768706942       -1.1612819980        0.1204015785
 N         -0.1812794872       -1.1878779701       -0.1366130632
 H          2.4956120723        1.1100779021        1.1336318059
 H          3.7854361670        0.0515378176        0.5525247921
 H          2.4413401901       -0.6193541441        1.4825181414
 H          2.1687534685       -1.1209741501       -0.9359522417
 H          2.2283755677        0.6162562096       -1.3059363678
 H          0.3624648731        2.1060911715       -0.3677457270
 H         -2.0768469395        2.1508209886        0.1181769422
 H         -3.2695845588       -0.0196043869        0.4356337701
 H         -1.9445908420       -2.1297297332        0.2462891782
  17
  -22.4861268000000       4.756908645593740E-002 !mtd9
 C          2.7387870162       -0.6694098221       -0.4461016190
 C          1.9506854162        0.3424108404        0.3770051252
 C          0.4654533404        0.2134411189        0.1804829835
 C         -0.3756479192        1.3141003052        0.3391573290
 C         -1.7382559411        1.1480756500        0.1703491263
 C         -2.2234146561       -0.1099135309       -0.1539394341
 C         -1.3078126720       -1.1404343277       -0.2895797589
 N         -0.0063148464       -0.9869551806       -0.1269963918
 H          2.5630310498       -0.5106635016       -1.5072039171
 H          2.4200959296       -1.6765193586       -0.1957356071
 H          3.8037485560       -0.5709420765       -0.2487919335
 H          2.2591322650        1.3600894928        0.1264364720
 H          2.1647032620        0.1872167679        1.4394872429
 H          0.0365129544        2.2804942569        0.5897988840
 H         -2.4120238332        1.9853474180        0.2869306336
 H         -3.2785230446       -0.2834411473       -0.2976387109
 H         -1.6272125031       -2.1438793511       -0.5421626898
  17
  -22.4861174000000       4.709826079500345E-002 !gc
 C          2.7326507602       -0.8114351479        0.1870187308
 C          1.9574986203        0.4579151135       -0.1441278167
 C          0.4684992930        0.2660097280       -0.0584240166
 C         -0.3760070524        1.3420447962        0.2125614713
 C         -1.7416750534        1.1292190062        0.2572614085
 C         -2.2266628729       -0.1506750329        0.0336212451
 C         -1.3075645953       -1.1537545252       -0.2260279259
 N         -0.0028523502       -0.9544563377       -0.2728050826
 H          3.8002877212       -0.6458176900        0.0639650130
 H          2.4178342419       -1.6173095369       -0.4684660423
 H          2.5412205328       -1.1133990670        1.2135645788
 H          2.1977209940        0.7706557778       -1.1655922193
 H          2.2536552486        1.2701990095        0.5238852594
 H          0.0362890509        2.3254943479        0.3842013610
 H         -2.4183838606        1.9462759750        0.4648000104
 H         -3.2843796310       -0.3615894738        0.0611214054
 H         -1.6264859001       -2.1726601824       -0.4071538582
  17
  -22.4861042200000       4.644594050658000E-002 !mtd13
 C          2.7336739212       -0.8246156829       -0.1449010835
 C          1.9579394721        0.4555515997        0.1307964246
 C          0.4677420939        0.2627035769        0.0660516871
 C         -0.3928000735        1.3356837130        0.3021736700
 C         -1.7574001980        1.1280534708        0.2352173713
 C         -2.2263596814       -0.1429940399       -0.0651057566
 C         -1.2928212053       -1.1416479044       -0.2830868013
 N          0.0130968598       -0.9478219483       -0.2201806291
 H          2.4676139862       -1.5871528178        0.5811568242
 H          3.8035208388       -0.6376365815       -0.0878030717
 H          2.4917457274       -1.2034946250       -1.1335277538
 H          2.2385028268        1.2249762326       -0.5948385789
 H          2.2139622554        0.8409277730        1.1223245204
 H          0.0096338519        2.3110949638        0.5332927665
 H         -2.4466900118        1.9414000109        0.4138563660
 H         -3.2835365325       -0.3491790685       -0.1272752221
 H         -1.5988559784       -2.1527616626       -0.5210510377
  17
  -22.4861041600000       4.644299166884584E-002 !gc
 C          2.7336170238       -0.8257964541       -0.1392214914
 C          1.9580183435        0.4566548674        0.1261449499
 C          0.4677965654        0.2631050321        0.0639016846
 C         -0.3926986103        1.3358562105        0.3010198551
 C         -1.7574048207        1.1278794609        0.2359952825
 C         -2.2264379595       -0.1433112621       -0.0634401755
 C         -1.2928588134       -1.1417694572       -0.2824932856
 N          0.0130542361       -0.9476351109       -0.2214566501
 H          3.8035216465       -0.6380844139       -0.0849075149
 H          2.4906719606       -1.2130903307       -1.1242908028
 H          2.4684648942       -1.5821937773        0.5936515395
 H          2.2378774632        1.2197250235       -0.6064533121
 H          2.2148336469        0.8507352131        1.1139810869
 H          0.0096354963        2.3114744927        0.5314697248
 H         -2.4465116344        1.9412205305        0.4153977201
 H         -3.2836324518       -0.3498422373       -0.1241882555
 H         -1.5990557458       -2.1529803815       -0.5198650174
  17
  -22.4861041100000       4.644053444711282E-002 !gc
 C          2.7335806933       -0.8264966562       -0.1358862408
 C          1.9580638250        0.4572492673        0.1233773218
 C          0.4678183370        0.2633763115        0.0626686260
 C         -0.3926738400        1.3359965930        0.3003557719
 C         -1.7573998550        1.1277743515        0.2364403371
 C         -2.2264614570       -0.1435242845       -0.0624666540
 C         -1.2928831706       -1.1418487321       -0.2821587095
 N          0.0130427098       -0.9474769762       -0.2221945934
 H          2.4900028150       -1.2188665644       -1.1187791899
 H          2.4690084022       -1.5791734025        0.6010203988
 H          3.8035024481       -0.6384108387       -0.0831958589
 H          2.2375251031        1.2165069905       -0.6133531461
 H          2.2153782920        0.8564899191        1.1089960643
 H          0.0096636204        2.3117095905        0.5303907851
 H         -2.4464996882        1.9410120926        0.4163389226
 H         -3.2836681718       -0.3502582464       -0.1223009495
 H         -1.5990999472       -2.1531520545       -0.5191150976
  17
  -22.4854605100000       2.350277419702918E-002 !gc
 C          2.8468337036        0.7111515751       -0.0487449168
 C          1.9328003202       -0.5021357956        0.0470775907
 C          0.4574018215       -0.2103281659        0.0172165670
 C         -0.0790872039        1.0624461133       -0.1515871014
 C         -1.4562541502        1.2128825924       -0.1655787076
 C         -2.2583204446        0.0945584714       -0.0121283138
 C         -1.6297185174       -1.1306881039        0.1495123946
 N         -0.3197035760       -1.2797802938        0.1644031580
 H          2.7010352686        1.2368607125       -0.9899058618
 H          3.8852869986        0.3917162421        0.0015464329
 H          2.6648614141        1.4014033866        0.7722526198
 H          2.1386276381       -1.0489114059        0.9708428195
 H          2.1472561889       -1.1911292096       -0.7744545127
 H          0.5584730525        1.9233697165       -0.2700830885
 H         -1.8958290018        2.1921400050       -0.2948226930
 H         -3.3345583382        0.1695951910       -0.0172891224
 H         -2.2016196199       -2.0417658914        0.2743518338
  17
  -22.4830009600000       1.740957662808771E-003 !mtd5
 C          2.7580835027        0.3561655074        0.6446652410
 C          1.9333812853       -0.2693569992       -0.4953308515
 C          0.4570756851       -0.1204462010       -0.2643726547
 C         -0.1495742433        1.1346223350       -0.2580139849
 C         -1.5093250662        1.2189113810       -0.0218832616
 C         -2.2230162820        0.0503003236        0.2005242102
 C         -1.5300394949       -1.1484560208        0.1704506742
 N         -0.2305272102       -1.2341370007       -0.0551293576
 H          2.1056148818        0.7907197560        1.3987691128
 H          3.4128390150        1.1407420206        0.2743825978
 H          3.3735745965       -0.3944428486        1.1319792224
 H          2.1498150530       -1.3332951212       -0.5832146668
 H          2.1890830961        0.2083554718       -1.4433055016
 H          0.4394310409        2.0217204156       -0.4373386163
 H         -2.0072485742        2.1784444795       -0.0125886393
 H         -3.2851665460        0.0712367488        0.3890522127
 H         -2.0352514286       -2.0920892451        0.3339276064
