  12
        -15.01640058
 C          1.6680096126        0.8910280318        0.1828025626
 C          1.2247166908       -0.4398994962       -0.4113146259
 C         -0.0368861659       -0.9756642672        0.2795961057
 C         -1.1607275682       -0.1017403476        0.0591727312
 N         -2.0450664766        0.5980093406       -0.1278603345
 H          1.9007666664        0.7815783187        1.2403931237
 H          2.5559298080        1.2564334085       -0.3272237782
 H          0.8803799800        1.6344416418        0.0794383777
 H          1.0250619720       -0.3171677786       -1.4781049526
 H          2.0215963584       -1.1785664419       -0.3003577272
 H          0.1296863460       -1.0584833724        1.3577077718
 H         -0.2937212120       -1.9654780063       -0.1089028799
