  16
        -17.87627207
 C          2.2704843860        0.9629374867        0.1354180526
 C          1.6520044904       -0.1128558076       -0.3130162508
 C          0.6600600349       -0.9122738177        0.4688221465
 C         -0.7051677538       -0.9717498864       -0.2360175332
 C         -1.3390333263        0.3805468931       -0.3033223972
 C         -2.5183053684        0.6789743382        0.2071581416
 H          2.9797522274        1.5081613670       -0.4641968031
 H          2.0943387201        1.3436014280        1.1284304532
 H          1.8435439336       -0.4726479054       -1.3166477533
 H          0.5357152295       -0.4832777108        1.4648685335
 H          1.0367576685       -1.9336396991        0.5798226004
 H         -1.3610137718       -1.6627124462        0.2971590807
 H         -0.5606014205       -1.3524963369       -1.2517258261
 H         -0.7487799136        1.1390905680       -0.8011138369
 H         -2.9371892049        1.6687462399        0.1407568020
 H         -3.1213666283       -0.0596492448        0.7107354706
  16
        -17.87625694
 C          2.0742160678        1.0356477952        0.2145488390
 C          1.4352557664        0.0720212081       -0.4203467292
 C          0.7530309600       -1.0789380465        0.2465104746
 C         -0.7443384917       -1.1076336166       -0.0979871337
 C         -1.4350332614        0.1181062529        0.4073475387
 C         -2.0831289937        0.9807686360       -0.3514292925
 H          2.5476656896        1.8496282615       -0.3075455401
 H          2.1550445858        1.0496994143        1.2894464173
 H          1.3655722782        0.0844007307       -1.5006561480
 H          0.8802619802       -1.0101475552        1.3286214003
 H          1.2087759196       -2.0137794385       -0.0932894907
 H         -1.1936521278       -1.9910734351        0.3654343930
 H         -0.8716280812       -1.1868391249       -1.1793800607
 H         -1.3638223757        0.2783260799        1.4756924014
 H         -2.5626473212        1.8545459564        0.0558197400
 H         -2.1655949461        0.8472329168       -1.4179802418
  16
        -17.87618149
 C          2.8091131613        0.5758628617        0.3016531405
 C          1.9044813928       -0.3539354045        0.0608385253
 C          0.5799527329       -0.1024907817       -0.5836669440
 C         -0.5738825845       -0.4783698336        0.3599463301
 C         -1.8979438533       -0.2561589012       -0.2961887476
 C         -2.8213221420        0.5776886248        0.1430078506
 H          3.7500349526        0.3508500244        0.7745617152
 H          2.6478704508        1.6061353258        0.0286888040
 H          2.0898961584       -1.3817403078        0.3476635385
 H          0.5007358305       -0.7044705535       -1.4939163207
 H          0.4920413650        0.9494077109       -0.8619063998
 H         -0.5033670512        0.1159839696        1.2728589078
 H         -0.4773331595       -1.5339883277        0.6311545831
 H         -2.0660910155       -0.8281643292       -1.2003427604
 H         -3.7610962270        0.7113218805       -0.3654723337
 H         -2.6774426400        1.1603959818        1.0384303288
  16
        -17.87614612
 C          2.9486870006       -0.3036035949       -0.0510391042
 C          1.8574372972        0.4360368658       -0.1061320006
 C          0.5538878110        0.0734440598        0.5283951993
 C         -0.5536816494       -0.0720105912       -0.5280355046
 C         -1.8569391228       -0.4359033383        0.1063629433
 C         -2.9493653904        0.3020397421        0.0504194266
 H          3.8669051412       -0.0064122492       -0.5286534117
 H          2.9719359601       -1.2397513955        0.4831502754
 H          1.8604127188        1.3717672931       -0.6509938494
 H          0.2619010716        0.8584604801        1.2322082184
 H          0.6562569725       -0.8612863171        1.0830732120
 H         -0.2612758177       -0.8564392479       -1.2323356824
 H         -0.6567339002        0.8629462268       -1.0821862232
 H         -1.8586149573       -1.3712329856        0.6519261631
 H         -3.8672073592        0.0039134662        0.5281878288
 H         -2.9738890273        1.2379972720       -0.4840304641
  16
        -17.87525560
 C          2.7004490318        0.4134522148        0.2219581804
 C          1.5085930755        0.3413515388       -0.3399325722
 C          0.6065185198       -0.8474393789       -0.2471071932
 C         -0.6127163057       -0.5813582455        0.6583516747
 C         -1.5049986411        0.4821229574        0.1029511439
 C         -2.6975540621        0.2539592025       -0.4141216327
 H          3.3198048638        1.2908233608        0.1423891388
 H          3.1117787016       -0.4091280887        0.7848793200
 H          1.1212101647        1.1809260177       -0.9017210274
 H          1.1614681013       -1.6968475455        0.1567121184
 H          0.2463805232       -1.1114708977       -1.2448821987
 H         -0.2524452842       -0.2774902146        1.6446665556
 H         -1.1754768192       -1.5109087508        0.7665850445
 H         -1.1094471820        1.4887010216        0.1332067804
 H         -3.3098656339        1.0441970245       -0.8145570151
 H         -3.1168826079       -0.7386991812       -0.4539622236
  16
        -17.87501323
 C          2.7953510520        0.2915016448        0.4628576945
 C          1.8249090156       -0.0933437884       -0.3439523107
 C          0.4046044997        0.3621356215       -0.2422915329
 C         -0.5279272903       -0.8244559136        0.0117723165
 C         -1.9820039057       -0.4797532378        0.1072273035
 C         -2.5228589701        0.7179498940       -0.0115789662
 H          3.8054776522       -0.0661083677        0.3559509254
 H          2.6202451744        0.9885912849        1.2663280829
 H          2.0280916007       -0.7968098893       -1.1420061820
 H          0.1160283235        0.8442419799       -1.1805423648
 H          0.3057966800        1.0876620877        0.5666176193
 H         -0.2300435746       -1.3198381787        0.9419808253
 H         -0.4029484945       -1.5608917326       -0.7893562838
 H         -2.6203997045       -1.3354711340        0.2944775218
 H         -3.5866089396        0.8635999575        0.0727511790
 H         -1.9411904892        1.6044544670       -0.1959428013
  16
        -17.87448697
 C          2.0760784997        1.0993565511        0.0181920008
 C          1.3844541724        0.0473238025        0.4136845147
 C          0.6132569959       -0.8590976255       -0.4931416573
 C         -0.7503058452       -1.2501292734        0.0791458228
 C         -1.7534409800       -0.1424120248        0.1875490975
 C         -1.5908129622        1.1174801225       -0.1677331120
 H          2.6334460798        1.7101584334        0.7077576459
 H          2.1167565648        1.3958342447       -1.0179978025
 H          1.3658941936       -0.2262507007        1.4611328592
 H          1.1945009207       -1.7781771662       -0.6281899438
 H          0.4913582663       -0.3992464380       -1.4751626298
 H         -0.6116233034       -1.6835369856        1.0754957757
 H         -1.1863612809       -2.0367139370       -0.5464011889
 H         -2.7034180061       -0.4604106920        0.6024901821
 H         -2.3832935708        1.8376629798       -0.0509687838
 H         -0.6697453243        1.4914627151       -0.5773818920
  16
        -17.87396237
 C          2.0386400597        0.9098268289        0.2772968956
 C          1.7775864637       -0.1835628332       -0.4140372349
 C          0.6115037385       -1.1110570888       -0.2491910197
 C         -0.5342047237       -0.6018703036        0.6313066730
 C         -1.2825437108        0.5138509203       -0.0262495155
 C         -2.5838218093        0.5099360236       -0.2442878950
 H          2.9212389220        1.4961790612        0.0838341971
 H          1.3983010030        1.2760896354        1.0612483338
 H          2.4713167272       -0.4968244791       -1.1859273701
 H          0.9920669962       -2.0490200235        0.1706710168
 H          0.2155210515       -1.3484380898       -1.2415162143
 H         -0.1294087695       -0.2620972588        1.5880729024
 H         -1.2200177159       -1.4270218821        0.8354317671
 H         -0.6792886681        1.3540338613       -0.3427345807
 H         -3.0863113395        1.3318588058       -0.7255522686
 H         -3.2070802537       -0.3171556256        0.0563253176
  16
        -17.87361822
 C          2.5894131664        0.3101502865       -0.4200664690
 C          1.8577289783       -0.3607791606        0.4495581231
 C          0.3626559518       -0.4120492890        0.5283980887
 C         -0.3626685413        0.4110122808       -0.5291965662
 C         -1.8577265531        0.3594813515       -0.4505477829
 C         -2.5894019462       -0.3078515520        0.4218382210
 H          3.6655272556        0.2783816059       -0.3886878711
 H          2.1625727704        0.9180756940       -1.1987050970
 H          2.3525079777       -0.9544854939        1.2095988106
 H          0.0648733430       -0.0674915804        1.5237832483
 H          0.0555713943       -1.4595269451        0.4465998737
 H         -0.0645932584        0.0664957276       -1.5245283063
 H         -0.0558367799        1.4586330766       -0.4474246667
 H         -2.3525940817        0.9496074979       -1.2133862007
 H         -3.6655380070       -0.2766136464        0.3899749680
 H         -2.1625031975       -0.9126459429        1.2029705021
  16
        -17.87351237
 C          2.6270758447        0.5622719705       -0.2753211049
 C          1.9356408643       -0.3123150019        0.4316459560
 C          0.5380036968       -0.7659858478        0.1206935682
 C         -0.4234387807        0.3956140543       -0.1722190983
 C         -1.8084509241       -0.1100370264       -0.4155646237
 C         -2.8618181438        0.2076524927        0.3128092097
 H          3.6302806298        0.8433182759       -0.0036241061
 H          2.2285595820        1.0360952609       -1.1568956285
 H          2.3885623682       -0.7631220695        1.3052538781
 H          0.1463577307       -1.3393338670        0.9632943637
 H          0.5614769981       -1.4330790362       -0.7469045702
 H         -0.0789883246        0.9324407923       -1.0590106111
 H         -0.4197733208        1.0903189891        0.6697166208
 H         -1.9095783565       -0.7930641457       -1.2499742384
 H         -3.8425840557       -0.1850271351        0.1041456953
 H         -2.7878808892        0.8831496274        1.1496416484
  16
        -17.87335337
 C          1.6218712727        1.0289595209        0.3952790810
 C          1.5593261550        0.0086716587       -0.4387310687
 C          0.5383379709       -1.0882197726       -0.4508770306
 C         -0.5522549614       -0.9983327928        0.6130815958
 C         -1.5590304422        0.0965230497        0.4301985434
 C         -1.6081244066        0.9771530703       -0.5508872018
 H          2.4076961594        1.7623198460        0.3258648575
 H          0.8948071371        1.1902431275        1.1717843904
 H          2.3159724383       -0.0964233389       -1.2082210589
 H          1.0729775005       -2.0357275329       -0.3197014366
 H          0.0768101095       -1.1281406516       -1.4422294428
 H         -0.0903388337       -0.8902191703        1.5991458411
 H         -1.0991399554       -1.9477872185        0.6296204993
 H         -2.3171175724        0.1206280338        1.2050557106
 H         -2.3844003536        1.7224151815       -0.5969734618
 H         -0.8787632487        1.0076930993       -1.3412739004
  16
        -17.87213293
 C          1.7797038040        0.9494293301       -0.3681455614
 C          1.6164326332       -0.0458260930        0.4817731604
 C          0.5075080531       -1.0517655640        0.4950653393
 C         -0.5271854759       -0.9055208866       -0.6245548524
 C         -1.3420625470        0.3535331479       -0.5314152168
 C         -2.0171946745        0.7348415394        0.5369172645
 H          2.6185162909        1.6207314720       -0.2910813532
 H          1.0916059417        1.1476596742       -1.1705088825
 H          2.3424750770       -0.1927460749        1.2733014686
 H          0.0068088577       -0.9929614062        1.4654706677
 H          0.9556317555       -2.0494767176        0.4331278815
 H         -1.2033647926       -1.7646445797       -0.5714277282
 H         -0.0179211220       -0.9483649135       -1.5884232369
 H         -1.3792406750        0.9637180346       -1.4247141875
 H         -2.5932611152        1.6441633158        0.5503343481
 H         -2.0262415223        0.1585078684        1.4473780661
