! r2scan-3c def2/J RI DEFGRID2 scfconv6 printgap
%output
    printlevel normal
end
* xyz 0 1
C 3.0724839019 -0.4652127583 0.1790347428
C 1.8930246245 0.2923686452 -0.4184959813
C 0.5636565951 -0.2057468513 0.1456412283
C -0.6106269912 0.5521347342 -0.4496270105
S -2.1817448851 -0.094764494 0.2575827553
H 4.0084731715 -0.0987730792 -0.2344656325
H 2.9919754725 -1.5278203197 -0.0382172419
H 3.0991070443 -0.3380652621 1.2588165859
H 1.8923191194 0.168687302 -1.5035940288
H 1.9981254924 1.3581361482 -0.2044392375
H 0.555723821 -0.0847800909 1.2319195982
H 0.4487778377 -1.2714041114 -0.0685688153
H -0.5547933237 1.6130294008 -0.2082558182
H -0.6569921711 0.4159453498 -1.5294982811
H -2.9865229121 0.7117421423 -0.4221886667
*
