! r2scan-3c def2/J RI DEFGRID2 scfconv6 printgap
%output
    printlevel normal
end
%cpcm
    smd true
    smdsolvent "water"
end
* xyz 0 1
C 1.8244344534 1.1109679171 0.2959261067
C 1.3916036586 -0.1852841562 -0.3883452945
H 2.0529893677 -0.3628218975 -1.2464546821
C -0.0507424917 -0.139936548 -0.9299682822
C -1.1379718738 0.4696478889 -0.0342851106
C -2.4517412877 0.5038910674 -0.8172919827
C -1.3414444824 -0.302324185 1.2689298115
O 1.6279632651 -1.3151102981 0.4351444822
H 1.6811084928 1.9498474883 -0.3784230967
H 1.2527838975 1.2837139415 1.2039662522
H 2.8773116347 1.0473566265 0.5600907057
H -0.0258733093 0.4315190885 -1.8600711934
H -0.3319909591 -1.1657144278 -1.1825198766
H -0.8625942577 1.5013821004 0.2052787966
H -2.7712790578 -0.5061270078 -1.0647979346
H -2.3346947363 1.0627352234 -1.7426875054
H -3.2341811319 0.9769281733 -0.2286668341
H -2.2415221061 0.0475292377 1.7704755106
H -1.4564670055 -1.3651780229 1.0677912084
H -0.5100006055 -0.1578358316 1.9544491498
H 1.1056532549 -1.2296871975 1.2442004908
*
