! pbe def2-sv(p) def2/J RI DEFGRID1 loosescf d4 GCP(DFT/SV(P)) printgap
%output
    printlevel normal
end
* xyz 0 1
C -2.8310863204 -0.8010103925 0.8477567089
C -2.4030221008 -0.3196769871 -0.5348900351
O -1.3896436289 0.6738567006 -0.4803661824
C -0.0968076707 0.319716448 -0.21978209
C 0.7970612376 1.3857529149 -0.0990976652
C 2.1342750236 1.1538423569 0.1459728444
C 2.6063794932 -0.1435216553 0.2751958608
C 1.724342064 -1.2005955995 0.1537237469
C 0.3783132049 -0.9806256121 -0.0912876112
H -3.6463090629 -1.5108510421 0.7471775574
H -2.0043989893 -1.2796403604 1.36665579
H -3.1661528393 0.0444945368 1.4427906969
H -3.2367409907 0.1851495656 -1.0291610781
H -2.0819799764 -1.1576523804 -1.1637605765
H 0.4108891438 2.3874687337 -0.2048210871
H 2.8117147502 1.9891734569 0.2369287953
H 3.6518764354 -0.3259363553 0.4686637324
H 2.0799290654 -2.2154313408 0.2513165033
H -0.2810746906 -1.8288824362 -0.1818523688
*
