! r2scan-3c def2/J RI DEFGRID2 scfconv6 printgap
%output
    printlevel normal
end
* xyz 0 1
C -2.5161844943 0.5665002401 0.6547964828
C -1.3382709851 -0.2119550035 0.0703911149
C -1.5359962066 -0.4006967094 -1.432058176
C -0.0228992179 0.5150292965 0.3741312844
C 1.2376584258 -0.3190092373 0.0687898757
C 2.0837618299 0.3324621855 -1.0240014756
C 2.0784326697 -0.5202421683 1.3291633333
H -2.5652055884 1.561340316 0.2170729219
H -3.4528296647 0.0542204747 0.4477372226
H -2.4131627531 0.6702658409 1.7325133911
H -1.3063161437 -1.1987940888 0.5470453068
H -0.7158032014 -0.9656417711 -1.8673004336
H -2.4612693286 -0.9378186656 -1.6286559037
H -1.5892530372 0.5664940641 -1.9279568978
H -0.0211415767 0.7912474328 1.4303538889
H 0.0003142773 1.4433594412 -0.2000124538
H 0.9288245444 -1.3086997058 -0.2846916096
H 2.9473288373 -0.2865278291 -1.2586543715
H 1.5016577668 0.4670688784 -1.9325478901
H 2.4407782352 1.3062454683 -0.6947622507
H 2.9499805158 -1.1344408289 1.1128539709
H 2.4218723767 0.4381596616 1.7132392401
H 1.4950782158 -1.0146940084 2.1026431267
*
