! pbe def2-sv(p) def2/J RI DEFGRID1 loosescf d4 GCP(DFT/SV(P)) printgap
%output
    printlevel normal
end
* xyz 0 1
C 2.2418697354 -0.2186800345 -0.0945804661
O 0.8886602456 -0.2984035841 0.2904086037
C 0.0886041863 0.7312114114 -0.2617764939
C -1.3469401406 0.5599438719 0.2544148193
N -1.979097728 -0.6883745561 -0.1301655756
H 2.3455447845 -0.3025547105 -1.1824666101
H 2.7466372775 -1.0509936227 0.3892619619
H 2.6860979677 0.7274413764 0.2338625922
H 0.4820935703 1.7140640514 0.0351376193
H 0.1110261312 0.6668212057 -1.3613907769
H -1.3298071943 0.6013903066 1.345541231
H -1.9534563067 1.387111494 -0.1209591172
H -1.415264481 -1.4575754042 0.2174598199
H -1.996548116 -0.7628761941 -1.142625399
*
