  12
  -28.6633742900000        1.00000000000000      !md1
 C         -0.1947559949        1.2696471226        0.0003778431
 C          1.2581462120        1.2083894994        0.0000017534
 O          2.0067487973        2.1533467056       -0.0005299433
 N          1.7625382683       -0.0949843115        0.0006614251
 C          1.0609842040       -1.2704206268        0.0000953163
 O          1.5640087634       -2.3617526033       -0.0002901406
 N         -0.3180500839       -1.0949256921       -0.0001182317
 C         -0.9107575962        0.1315170054        0.0001897307
 Cl        -2.6284158270        0.1069409306       -0.0000815547
 H         -0.6554362924        2.2409653967        0.0004722559
 H          2.7733913638       -0.1815791583        0.0004889584
 H         -0.8817377261       -1.9349904808       -0.0005436837
