  16
  -23.1064953400000       0.243678738598166      !md2
 C         -2.2761760428       -0.3213949880       -0.0826576849
 C         -1.8520133036        0.9967998647       -0.1101736865
 C         -0.5047855737        1.2951710997       -0.0147121581
 C          0.4321718161        0.2781666300        0.1159592058
 C         -0.0002207834       -1.0408862985        0.1476047866
 C         -1.3474743352       -1.3394679025        0.0463617769
 C          1.9019330002        0.6024106208        0.2309279295
 O          2.7515256831       -0.4184957015       -0.2352341568
 H         -3.3280411671       -0.5533249732       -0.1611743299
 H         -2.5730291619        1.7948606371       -0.2105870319
 H         -0.1750186047        2.3243117054       -0.0398419414
 H          0.7285006084       -1.8312340218        0.2565867744
 H         -1.6724396154       -2.3693255929        0.0712475264
 H          2.1122371303        1.5487980446       -0.2906967347
 H          2.1651188774        0.7356836349        1.2861936548
 H          2.5205614775       -0.6170151678       -1.1496315531
  16
  -23.1064953400000       0.243678738598166      !hor
 C         -2.2934999774       -0.1386313930       -0.1078098971
 C         -1.5726124549        1.0308076851       -0.2762446261
 C         -0.1963946092        1.0241666111       -0.1331898411
 C          0.4730788466       -0.1525976343        0.1748866018
 C         -0.2560924853       -1.3229120897        0.3419383184
 C         -1.6323921802       -1.3149660173        0.2043544735
 C          1.9741526899       -0.1572409564        0.3343369189
 O          2.6316393583        0.8424311717       -0.4071576090
 H         -3.3677428270       -0.1345587325       -0.2190080515
 H         -2.0827918041        1.9519153256       -0.5173368491
 H          0.3706905212        1.9357364997       -0.2556711228
 H          0.2587303457       -2.2425923486        0.5820826088
 H         -2.1906422185       -2.2301988633        0.3368458333
 H          2.2310101224        0.0449773775        1.3801706289
 H          2.3688603603       -1.1522408215        0.0770163710
 H          2.3910626591        0.7449468349       -1.3353911354
  16
  -23.1064953400000       0.243678738598166      !hor
 C         -2.2773505725       -0.3203220512        0.0478859231
 C         -1.8534995283        0.9982013365        0.0612690089
 C         -0.5047726685        1.2951564072       -0.0155028374
 C          0.4341559423        0.2762358932       -0.1129364890
 C          0.0021693353       -1.0432026955       -0.1303984416
 C         -1.3467173351       -1.3402690786       -0.0479878793
 C          1.9057980717        0.5987681907       -0.2074614535
 O          2.7469763131       -0.4140978747        0.2904356214
 H         -3.3304863664       -0.5509657731        0.1117815154
 H         -2.5760677770        1.7976918892        0.1358663654
 H         -0.1753487117        2.3246250658       -0.0015204139
 H          0.7325815020       -1.8351368757       -0.2134097650
 H         -1.6712406677       -2.3704872083       -0.0612226332
 H          2.1873459558        0.7145761141       -1.2600782237
 H          2.1070633130        1.5537440851        0.3019662929
 H          2.5006051996       -0.5968498938        1.2041451867
  16
  -23.1064953300000       0.243676160016670      !mtd2
 C         -2.2964076121       -0.1157600841        0.0628380339
 C         -1.5763975699        1.0599892719       -0.0589244357
 C         -0.1961842764        1.0221640757       -0.1486074027
 C          0.4780442170       -0.1910994336       -0.1125489836
 C         -0.2502866776       -1.3673538519        0.0105432904
 C         -1.6304060183       -1.3297265283        0.0945517564
 C          1.9835982609       -0.2306742683       -0.2142738928
 O          2.6200884573        0.9317143530        0.2602220125
 H         -3.3737794266       -0.0874537600        0.1324676481
 H         -2.0903296096        2.0096812843       -0.0869992907
 H          0.3705136013        1.9363542979       -0.2518213549
 H          0.2682248674       -2.3154458661        0.0389259661
 H         -2.1879601735       -2.2500662947        0.1893056462
 H          2.3648945200       -1.1212306363        0.3087254314
 H          2.2766344826       -0.3092559015       -1.2671580895
 H          2.3469989701        1.0810980663        1.1723851590
  16
  -23.1035076600000       1.032226433879318E-002 !gc
 C         -2.2782140961       -0.3349997777       -0.0223136535
 C         -1.8710593955        0.9893895017       -0.0219159391
 C         -0.5244608011        1.3006707493       -0.0081553248
 C          0.4299077704        0.2901166897        0.0055168461
 C          0.0179382992       -1.0332001565        0.0051893628
 C         -1.3314068012       -1.3434460788       -0.0087968135
 C          1.8923734733        0.6559733466        0.0212672744
 O          2.7005252014       -0.4985218686        0.0208139847
 H         -3.3308418821       -0.5771971870       -0.0332145568
 H         -2.6057321768        1.7814487671       -0.0325061669
 H         -0.2076020626        2.3345216948       -0.0079691867
 H          0.7633687526       -1.8121358332        0.0156285556
 H         -1.6429237026       -2.3778518298       -0.0090767116
 H          2.1109546654        1.2787069553       -0.8615733792
 H          2.0945802620        1.2662621493        0.9167517811
 H          3.6244168410       -0.2306631921        0.0296290704
  16
  -23.1035075900000       1.032149975944416E-002 !mtd7
 C         -2.3000360333       -0.1104024329       -0.0269207353
 C         -1.5627877641        1.0494321119       -0.1845003432
 C         -0.1791741743        1.0060938688       -0.1535957276
 C          0.4773068294       -0.1997137710        0.0357726224
 C         -0.2669730005       -1.3630507107        0.1939293432
 C         -1.6480662930       -1.3182242671        0.1625811226
 C          1.9825440952       -0.2757037096        0.0722369878
 O          2.5555660368        1.0017152431       -0.0882500080
 H         -3.3794138163       -0.0764225458       -0.0509622939
 H         -2.0656198727        1.9940780025       -0.3323626314
 H          0.4040839703        1.9047109302       -0.2753230643
 H          0.2410148231       -2.3060669370        0.3419989059
 H         -2.2183295905       -2.2274027666        0.2865913432
 H          2.2914975912       -0.7178974679        1.0334034174
 H          2.3217341597       -0.9523875157       -0.7292270763
 H          3.5134580610        0.9182583523       -0.0590045996
  16
  -23.1027528300000       4.643860090594931E-003 !gc
 C         -2.2640345400       -0.2459864867       -0.2128608761
 C         -1.6687651896        0.9975815119       -0.3406496326
 C         -0.3184781625        1.1498419529       -0.0823851513
 C          0.4506182743        0.0610478599        0.3063817833
 C         -0.1507753073       -1.1837898810        0.4252491320
 C         -1.5024382524       -1.3363846402        0.1698717704
 C          1.9272717105        0.2297336017        0.5509407016
 O          2.5849709855        0.2347819771       -0.7037269140
 H         -3.3187744626       -0.3652122262       -0.4132120242
 H         -2.2587313477        1.8511178871       -0.6414048391
 H          0.1467192681        2.1191926682       -0.1855147325
 H          0.4417541306       -2.0380945283        0.7195797788
 H         -1.9615056867       -2.3094076495        0.2678348153
 H          2.1111482710        1.1775066075        1.0794730660
 H          2.3005501641       -0.5952109150        1.1749295534
 H          3.5310268196        0.3413857953       -0.5614101590
