  42
        -73.73945763
 C         -3.1522335341        0.2529166543        2.8532488827
 C         -3.8799418309       -0.5648550481        1.7933855283
 C         -2.9114835278       -1.1537775820        0.7601258599
 N         -2.2094655216       -0.1185980903        0.0249753409
 C         -3.0543997996        0.8100175530       -0.7032272094
 C         -2.5420537908        1.1119981956       -2.1134462275
 C         -2.6541656046       -0.1049123630       -3.0254196793
 C         -0.8616466278       -0.0581671920        0.0280038435
 C         -0.1075592702        1.1535636255        0.0183231738
 C          1.2808167981        1.1596540354        0.0322534665
 C          1.9919912787       -0.0166473222        0.1232161418
 C          1.3174907583       -1.2201743497        0.1410122229
 C         -0.0638148555       -1.2453250103        0.0434410158
 N         -0.6195773990       -2.5464093679       -0.2447385460
 O         -1.5349741381       -2.5968741517       -1.0427421434
 O         -0.0903128845       -3.5103614137        0.2589119785
 S          3.7892764648        0.0253003748        0.2035383830
 O          4.1733256213        1.2269443404        0.8849255658
 O          4.2412732518       -1.2367566768        0.7113437970
 C          4.2658449460        0.1630236177       -1.5405647963
 N         -0.6985012856        2.4603633489        0.1449074330
 O         -1.6862181930        2.5712895853        0.8442012978
 O         -0.1365509052        3.3827595399       -0.4055806181
 H         -3.8558767660        0.5972970668        3.6061099250
 H         -2.3922644276       -0.3488166065        3.3476431873
 H         -2.6757429002        1.1244256701        2.4128917010
 H         -4.6373101004        0.0525583194        1.3116687867
 H         -4.3909438521       -1.4063458457        2.2651139754
 H         -2.1884803745       -1.7541713381        1.3153559570
 H         -3.4470531892       -1.8105222944        0.0646274774
 H         -3.1958758134        1.7414429938       -0.1404393688
 H         -4.0280839707        0.3272870265       -0.7992569574
 H         -3.1447549246        1.9274736463       -2.5172013313
 H         -1.5067359718        1.4555276910       -2.0934349953
 H         -3.6975649133       -0.3744997860       -3.1706399918
 H         -2.2203264201        0.1116868678       -3.9979317857
 H         -2.1394212973       -0.9625926080       -2.6005755685
 H          1.8071550756        2.1029635515        0.0364177196
 H          1.8727155473       -2.1455019524        0.1923775063
 H          3.8396062197        1.0749029450       -1.9375849026
 H          5.3474592645        0.2002689938       -1.5839290245
 H          3.8961709938       -0.7106826589       -2.0609555081
