! r2scan-3c def2/J RI DEFGRID2 scfconv6 printgap
%output
    printlevel normal
end
* xyz 0 1
C 1.8646628354 -0.2883080747 0.8981219956
C 1.5314382989 0.2231352201 -0.4979008449
C 0.246308879 -0.3538269836 -1.0997116553
C -1.0661732028 0.0032814738 -0.3634471319
H -1.8774425516 0.0051464476 -1.1121498929
C -1.4469463321 -1.0180720481 0.706364403
O -1.0207009243 1.2784439812 0.2554935097
H 2.8578327002 0.0478012274 1.1885976053
H 1.8482029247 -1.3756012602 0.9253000762
H 1.1535877135 0.0978636702 1.6234087235
H 1.461623729 1.3117367347 -0.4631472373
H 2.3504611578 -0.032432188 -1.1748575543
H 0.1750894128 0.0103832246 -2.1277993374
H 0.3232745757 -1.4407896396 -1.142054587
H -2.368505421 -0.701303047 1.1885788937
H -1.6016177015 -1.9903692621 0.2484037313
H -0.6738781358 -1.0956387467 1.4622044791
H -0.903619541 1.9554639869 -0.4229555339
*
