! r2scan-3c def2/J RI DEFGRID2 scfconv6 printgap
%output
    printlevel normal
end
%cpcm
    smd true
    smdsolvent "water"
end
* xyz 0 1
C -1.3898281853 -1.2552578703 0.6907595242
C -1.0799170284 -0.3314389848 -0.4854435621
C -2.3722008721 0.370096063 -0.9164694818
C 0.0380051835 0.7095075082 -0.248072546
C -0.2848716011 1.6819313345 0.8878128847
C 1.4790248388 0.1578270536 -0.1004564623
C 1.837180179 -0.4147082001 1.271006382
C 1.8234099505 -0.8589229034 -1.1890748148
H -0.5667712537 -1.9329409087 0.8939310061
H -1.6087838378 -0.6891086062 1.5915186305
H -2.2637259769 -1.8591481993 0.4531680778
H -0.7622892661 -0.9558031695 -1.3266118128
H -2.8283608617 0.893563862 -0.080351297
H -3.0880219045 -0.3620040779 -1.2841562782
H -2.180185431 1.0863727922 -1.7123443231
H 0.0645887324 1.3032505685 -1.172687613
H -1.1764487842 2.2576733456 0.6561835257
H 0.5389563043 2.3801959281 1.0207210153
H -0.4467163993 1.1614848666 1.8267465842
H 2.1322570258 1.0278450575 -0.2524595402
H 1.6625592021 0.3108651709 2.059335584
H 1.2715290717 -1.3129272188 1.4943153889
H 2.8943426714 -0.6740855995 1.2828070862
H 1.3130519481 -1.8032139227 -1.0172825234
H 2.8940505839 -1.0520458247 -1.1898216276
H 1.544562475 -0.4834737985 -2.1712327068
*
