! pbe def2-sv(p) def2/J RI DEFGRID1 loosescf d4 GCP(DFT/SV(P)) printgap
%output
    printlevel normal
end
* xyz 0 1
C 2.0362483594 -0.965807736 0.1957455312
C 1.2011643544 0.0872102124 0.9179927793
C 0.1677557681 0.8201155168 0.0428455008
H -0.0499199504 1.7774498643 0.5511426067
C -1.197579736 0.119082112 -0.1466986278
C -1.0923624394 -1.2588751106 -0.7943012404
C -1.9777397246 0.0431370816 1.1636927087
O 0.7769708577 1.1018987626 -1.2063404082
H 2.4570058337 -0.5411097674 -0.7113894039
H 1.4487309351 -1.8372125288 -0.0710152644
H 2.8507100297 -1.285305653 0.8417795364
H 0.6882313439 -0.3568797988 1.7702168021
H 1.8864045529 0.8461201636 1.3021021615
H -1.7642359921 0.7651590501 -0.8312740042
H -2.0694752268 -1.5759847278 -1.1521025074
H -0.4065390681 -1.2281323885 -1.6371579491
H -0.7404763693 -1.9948680189 -0.0768087311
H -2.9821497409 -0.3261455098 0.9725732151
H -2.0524374001 1.0243786691 1.6268841317
H -1.4970287884 -0.6337448102 1.8651107644
H 0.1759969101 1.6403527874 -1.7372616131
*
