! wb97x-v def2-tzvp def2/J RIJCOSX DEFGRID2 scfconv7 GCP(DFT/TZ) printgap
%output
    printlevel normal
end
* xyz 0 1
C 2.17891949303097 -1.02527947171823 -0.589271007512221
C 1.2057782128394086 -0.19700301879403104 0.2288051906950096
C 1.7700055769102794 1.1732797612152763 0.5779956537366691
O 0.0029857675680030255 -0.05274606720840639 -0.5611189276108854
C -1.2023168044742332 0.10424666462991983 0.22199652152547966
C -2.1802909436089375 0.9005735760122923 -0.6216493318192611
C -1.7570039453151731 -1.260248444789947 0.6079725574709897
H 3.120202440362025 -1.1497274749964004 -0.045549707673383656
H 1.766001142637484 -2.0166243797455903 -0.7996882655399233
H 2.3963785477148654 -0.5274484508018796 -1.5407690259681532
H 0.9597966510744662 -0.7384150442383828 1.1538384086816074
H 2.65018861173039 1.0699081814042422 1.22124171822509
H 1.032416651168661 1.7817971820137182 1.1108101975394769
H 2.067637253945271 1.702916241045245 -0.3337236981520229
H -0.9628155955734727 0.6739976007256369 1.1318273615983836
H -2.3883800938245283 0.3754595340486411 -1.5604726173477343
H -3.1253121653579954 1.0287403242090194 -0.08520769937791357
H -1.7775376703393904 1.8905880719933719 -0.8564635641844487
H -2.046454979693878 -1.8174673881726975 -0.28996752263424136
H -2.6404330119371378 -1.1467304229071418 1.2449305108942577
H -1.0167847898807598 -1.8479333171651495 1.1599958207720769
*
