! pbe def2-sv(p) def2/J RI DEFGRID1 loosescf d4 GCP(DFT/SV(P)) printgap
%output
    printlevel normal
end
* xyz 0 1
C 2.5521857282 -0.186525239 0.681138158
C 1.1306094115 -0.6494441779 0.3811880058
C 0.2366655479 0.5264785818 -0.0291245366
H 0.3752259021 1.3425194568 0.6910029993
C -1.2707957153 0.1869585452 -0.0765497853
C -1.5742166808 -1.0848945004 -0.8680804017
C -1.8621714439 0.0884029365 1.3279252472
O 0.6678265259 1.0884752748 -1.2582566822
H 2.9503450548 0.3703592679 -0.1640661782
H 3.1986917342 -1.0384135992 0.8755905638
H 2.5637992898 0.4646316124 1.5522467691
H 1.1537400959 -1.380868173 -0.4289430914
H 0.7091605619 -1.1285149722 1.264486398
H -1.7459858276 1.0327576253 -0.5886531816
H -1.1392047408 -1.0457878353 -1.8639482364
H -1.1926510891 -1.96178284 -0.3516728062
H -2.6501624212 -1.197465591 -0.9780512278
H -2.9380329364 -0.0555420118 1.267987628
H -1.6676398571 0.9971420107 1.8922579963
H -1.4369424014 -0.7524347352 1.8699882594
H 0.6057654405 0.4101952956 -1.9448532883
*
