! pbe def2-sv(p) def2/J RI DEFGRID1 loosescf d4 GCP(DFT/SV(P)) printgap
%output
    printlevel normal
end
* xyz 0 1
C -1.0130227534 -0.4793887837 -0.2666933915
C 0.150910672 0.3722745485 0.2590140309
C 1.4723493355 -0.1004981376 -0.369433061
O 1.7267496782 -1.4177210764 0.0625120105
O -0.0479656967 1.7506643709 0.0532694515
O -2.2632245331 -0.1080243801 0.2618728548
H -0.7884757437 -1.5324132995 -0.0565024666
H -1.1058549886 -0.3494479758 -1.3486718979
H 0.2297650981 0.2504857329 1.3455854045
H 2.2668693059 0.5836746877 -0.0463608661
H 1.3901082562 -0.0598110579 -1.464280471
H 2.5757342006 -1.7137224941 -0.2948803657
H -0.3240463159 1.9048029837 -0.8615921281
H -2.2387214783 -0.1798546505 1.2257746525
*
