! r2scan-3c def2/J RI DEFGRID2 scfconv6 printgap
%output
    printlevel normal
end
* xyz 0 1
C 2.2982436663 -0.2777411263 -0.7324724297
C 1.5336256138 -0.5862660489 0.5502526448
C 0.3379870363 0.3357909249 0.7830038083
C -0.772875777 0.2559991805 -0.269466302
H -0.3518680708 0.4798265774 -1.2622010321
C -1.4510116414 -1.1116967494 -0.3057435059
O -1.7003228823 1.280488595 0.0688094702
H 3.2006465044 -0.8820413079 -0.7848304582
H 2.5844434745 0.7710827975 -0.7602307386
H 1.6952289068 -0.4934738294 -1.6104664259
H 1.2041708422 -1.6260810399 0.5383901265
H 2.2102965138 -0.4688401288 1.399284105
H -0.1109730527 0.1125312719 1.7532799668
H 0.6786043339 1.3733158223 0.8135780557
H -2.2650887507 -1.1123062191 -1.0276001562
H -0.7384047925 -1.8772489123 -0.5952625299
H -1.8532583562 -1.3515465283 0.6757452153
H -2.4527126342 1.2402142335 -0.5367316078
*
