! r2scan-3c def2/J RI DEFGRID2 scfconv6 printgap
%output
    printlevel normal
end
%cpcm
    smd true
    smdsolvent "water"
end
* xyz 0 1
C 1.9457099563 -1.3827237683 -0.1994773406
C 1.059929505 -0.2531192605 0.3243889375
C 1.6964736972 1.0982018352 0.0050845963
C -0.3421464042 -0.3779696798 -0.2782503367
C -1.363522286 0.5762448465 0.3346741099
O -2.6440775929 0.2362463139 -0.1660549641
H 1.519826267 -2.3519374526 0.0480823427
H 2.9390624016 -1.3215815738 0.2381599526
H 2.0410571125 -1.3156395736 -1.2807868662
H 0.9777526315 -0.3523257446 1.4128662423
H 1.7357063866 1.2512367752 -1.0709736434
H 2.7111766792 1.1353207904 0.3941400288
H 1.1328203195 1.9128033577 0.4511938812
H -0.7157401438 -1.3927446016 -0.1247973738
H -0.3027729663 -0.2029064896 -1.3549746118
H -1.3477772 0.4773389613 1.4293257756
H -1.1239041727 1.6139951505 0.0721996708
H -3.3033314038 0.8404438488 0.1999802926
*
