  19
        -29.54838198
 C         -2.7337764167       -0.2565712918        0.0000266867
 C         -2.3440384235        1.0909909436       -0.0000287972
 C         -1.0182504381        1.4245182444       -0.0000368177
 C         -0.0284990809        0.4222441583       -0.0000088475
 C         -0.4163293430       -0.9418263817        0.0000048938
 C         -1.7930152203       -1.2482802953        0.0000359932
 C          0.5750521493       -1.9457680281       -0.0000162616
 C          1.8985646456       -1.6097729016       -0.0000243860
 C          2.2942034856       -0.2652206433        0.0000025855
 C          1.3571665206        0.7375080275        0.0000114374
 O          1.7045932355        2.0540905009        0.0000237697
 H         -3.7855340988       -0.5042473416        0.0000102445
 H         -3.1000530674        1.8624639260       -0.0000328673
 H         -0.7018942457        2.4561227678       -0.0000182133
 H         -2.0902668597       -2.2874770046        0.0000153307
 H          0.2689125924       -2.9814384175        0.0000011977
 H          2.6591507460       -2.3765898490       -0.0000155870
 H          3.3482757347       -0.0181929083        0.0000073656
 H          2.6661126296        2.1333516987        0.0000545816
