  19
  -29.5483819800000       0.859208327099445      !hor
 C         -2.7337764167       -0.2565712918        0.0000266867
 C         -2.3440384235        1.0909909436       -0.0000287972
 C         -1.0182504381        1.4245182444       -0.0000368177
 C         -0.0284990809        0.4222441583       -0.0000088475
 C         -0.4163293430       -0.9418263817        0.0000048938
 C         -1.7930152203       -1.2482802953        0.0000359932
 C          0.5750521493       -1.9457680281       -0.0000162616
 C          1.8985646456       -1.6097729016       -0.0000243860
 C          2.2942034856       -0.2652206433        0.0000025855
 C          1.3571665206        0.7375080275        0.0000114374
 O          1.7045932355        2.0540905009        0.0000237697
 H         -3.7855340988       -0.5042473416        0.0000102445
 H         -3.1000530674        1.8624639260       -0.0000328673
 H         -0.7018942457        2.4561227678       -0.0000182133
 H         -2.0902668597       -2.2874770046        0.0000153307
 H          0.2689125924       -2.9814384175        0.0000011977
 H          2.6591507460       -2.3765898490       -0.0000155870
 H          3.3482757347       -0.0181929083        0.0000073656
 H          2.6661126296        2.1333516987        0.0000545816
  19
  -29.5466727200000       0.140791672900555      !hor
 C         -2.7393612597       -0.2824343689        0.0000150841
 C         -2.3637958336        1.0683891869       -0.0000360676
 C         -1.0421313564        1.4179223532       -0.0000365346
 C         -0.0269503532        0.4363353587       -0.0000005814
 C         -0.4094160578       -0.9333109292        0.0000153091
 C         -1.7828310369       -1.2571241738        0.0000362914
 C          0.5803587694       -1.9361492551       -0.0000025025
 C          1.9054281749       -1.6007643074       -0.0000322158
 C          2.2978876144       -0.2595319201       -0.0000171394
 C          1.3612863659        0.7474288743        0.0000078220
 O          1.8179317732        2.0281959656        0.0000345104
 H         -3.7877126538       -0.5418805092        0.0000265928
 H         -3.1263555817        1.8333575559       -0.0000624949
 H         -0.7875677143        2.4711435761       -0.0000740818
 H         -2.0632652315       -2.3007372125        0.0000540859
 H          0.2713047183       -2.9708830535        0.0000157825
 H          2.6647936182       -2.3683788052       -0.0000330448
 H          3.3422288832        0.0095534202       -0.0000137982
 H          1.0784946269        2.6470127205        0.0001413551
