! pbe def2-sv(p) def2/J RI DEFGRID1 loosescf d4 GCP(DFT/SV(P)) printgap
%output
    printlevel normal
end
* xyz 0 1
C -1.6588013369 0.8388894925 -0.059373316
O -1.168539093 -0.4288936033 0.358575433
C -0.0130497821 -0.8964281254 -0.2713303219
O 1.1943938503 -0.4236044458 0.2477018176
C 1.6479464588 0.8370393858 -0.2292339807
H -1.5987030791 0.9362077449 -1.1470406498
H -1.1123020292 1.6570502188 0.4150188733
H -2.6992387162 0.8687984813 0.2564516804
H -0.0026096072 -1.9739456795 -0.0819572556
H -0.0644351017 -0.6958585642 -1.3580085353
H 2.7109960984 0.870385844 -0.0014054851
H 1.1427770988 1.663682629 0.2751968742
H 1.4979641356 0.9170674453 -1.3096317301
*
