  13
        -20.39982636
 C         -2.2201770371        0.0000387698       -0.0002555425
 C         -1.5296393805       -1.2021081957       -0.0000099075
 C         -0.1479411065       -1.2098155452        0.0001927962
 C          0.5469392329       -0.0000571062        0.0001851295
 C         -0.1478334017        1.2097660377        0.0002277670
 C         -1.5295589855        1.2021685558       -0.0000545887
 C          1.9613613337        0.0000273891        0.0000678407
 N          3.1077209770       -0.0000204497       -0.0003030174
 H         -3.2999682663        0.0000976704       -0.0006481460
 H         -2.0707717120       -2.1364960069       -0.0001448309
 H          0.4003846257       -2.1404097310        0.0004362805
 H          0.4005769287        2.1402913321        0.0004940033
 H         -2.0707493358        2.1365637137       -0.0001388471
