! r2scan-3c def2/J RI DEFGRID2 scfconv6 printgap
%output
    printlevel normal
end
* xyz 0 1
C 2.3972772206 -0.027657184 -0.1864463979
O 1.1633548639 0.1932802393 0.4626925191
C 0.04948982 -0.1473715894 -0.3379177115
C -1.2240231735 0.1705247245 0.4421494398
N -2.3938017337 -0.1309346817 -0.3691008995
H 3.1689465331 0.2696026564 0.5189032221
H 2.4725063945 0.575524216 -1.0976341168
H 2.5183865636 -1.0849965386 -0.4468192473
H 0.0617771564 0.4252274035 -1.2754063744
H 0.0827493949 -1.2189749602 -0.589631881
H -1.1856216236 -0.3805819905 1.3960406535
H -1.2302253475 1.2380030515 0.6742917659
H -3.2325567735 0.1078586311 0.1469684571
H -2.4275448695 -1.1264833396 -0.5623600411
*
