! r2scan-3c def2/J RI DEFGRID2 scfconv6 printgap
%output
    printlevel normal
end
* xyz 0 1
C -1.0349297734 -0.5243922595 -0.2737200302
C 0.0018758451 0.2509832131 0.5510092108
C 1.3117058313 -0.5441941748 0.6439529912
O 1.7717396787 -0.7893762765 -0.6694182913
O 0.2363854355 1.5379916546 0.0337724701
O -2.3005747709 0.0703266951 -0.0905005686
H -1.0469983308 -1.5662515025 0.0717381707
H -0.7364153555 -0.5026942939 -1.3285994496
H -0.4026982086 0.411979016 1.5549022942
H 1.1299835745 -1.4842305267 1.1778203173
H 2.038564802 0.055904968 1.204300504
H 2.6221236852 -1.2471064808 -0.6317039061
H 0.6603406985 1.4409566346 -0.8328315069
H -2.9431901795 -0.3652665781 -0.6668702625
*
