  12
  -19.1880365300000        1.00000000000000      !md1
 C         -3.5439872961        0.0000595552        0.0000444109
 C         -2.8506696852       -1.1984580521        0.0000091318
 C         -1.4660931414       -1.2047623407       -0.0000274991
 C         -0.7877254830       -0.0000558525       -0.0000692193
 C         -1.4659949158        1.2046928941       -0.0000403229
 C         -2.8505697559        1.1985234702        0.0000231238
 I          1.3322846599       -0.0000003569        0.0000075346
 H         -4.6235091388        0.0000681092        0.0000798348
 H         -3.3854357453       -2.1364357007       -0.0000781143
 H         -0.9255827648       -2.1388930753       -0.0000727859
 H         -0.9253950688        2.1387692858       -0.0002541819
 H         -3.3852601929        2.1365402051        0.0000960498
