! pbe def2-sv(p) def2/J RI DEFGRID1 loosescf d4 GCP(DFT/SV(P)) printgap
%output
    printlevel normal
end
* xyz 0 1
C 2.1360525829 -0.6145326663 -0.8749692174
C 1.2155665077 -0.1685792117 0.2609723172
H 0.9096178825 -1.0546913012 0.8397491542
C -0.0338336655 0.5601725476 -0.2631486329
C -1.3588416008 -0.0464122681 0.2090676046
C -2.5080598831 0.9139025976 -0.0919133373
C -1.6177354731 -1.3938163912 -0.4621564798
O 1.8817827028 0.7298274072 1.1394588443
H 1.5974158679 -1.2763067608 -1.5465678748
H 2.4805107427 0.2544194746 -1.4307271979
H 3.001568804 -1.1461000391 -0.4846288302
H 0.0356600683 1.5903316725 0.0921237252
H -0.0206636371 0.5824118344 -1.3535151058
H -1.3043818504 -0.1936148522 1.2935904726
H -2.3590423171 1.8627183745 0.4177459367
H -3.4536623979 0.4908782189 0.2383660367
H -2.570687269 1.1036423677 -1.1611441486
H -0.8109171939 -2.0940015964 -0.2613903912
H -2.5449281848 -1.8271844897 -0.0948448942
H -1.7016508122 -1.2654932526 -1.5391984388
H 2.691809741 0.3166018242 1.4668367718
*
