! r2scan-3c def2/J RI DEFGRID2 scfconv6 printgap
%output
    printlevel normal
end
%cpcm
    smd true
    smdsolvent "water"
end
* xyz 0 1
C 2.6161601769 -0.838604961 -0.1015103796
C 1.9940532466 0.5515181918 -0.1718182755
C 0.5690940455 0.6049593875 0.3830979308
C -0.4177513006 -0.1607244428 -0.4830026605
S -2.1243484931 -0.0795379522 0.1757985657
H 2.5852412637 -1.2179714185 0.9174288253
H 3.654430118 -0.8007142894 -0.4215770099
H 2.0902297937 -1.5381095939 -0.7461005026
H 1.9901921633 0.89736683 -1.2077436507
H 2.60930888 1.2432089296 0.4068506602
H 0.2522426014 1.6490843926 0.4418041202
H 0.552209929 0.1940684681 1.3949272383
H -0.4381013405 0.2196155897 -1.5039588581
H -0.1925792097 -1.225934332 -0.5014889323
H -2.2622699053 1.2370652502 0.0748145911
*
