  10
  -17.7893718500000       5.087618248737723E-002 !mtd11
 C         -1.9439734502       -0.0578206631        0.0007371520
 C         -0.6905581166        0.7929084193       -0.0009352900
 N          0.5399913125       -0.0309097571       -0.0001225712
 O          0.4263567698       -1.2296464358       -0.0003458720
 O          1.5851514298        0.5748833987        0.0006344236
 H         -1.9737588994       -0.6963756309       -0.8782726064
 H         -1.9736199003       -0.6931820953        0.8820665975
 H         -2.8210610615        0.5828859528       -0.0003416727
 H         -0.6352394681        1.4363951018        0.8809682810
 H         -0.6358701876        1.4335968335       -0.8849365227
  10
  -17.7893718400000       5.087564412123381E-002 !mtd10
 C         -1.9440520841       -0.0577718398        0.0005121651
 C         -0.6905656283        0.7928350458       -0.0006517688
 N          0.5399810034       -0.0309025216       -0.0000749503
 O          0.4263978270       -1.2296536998       -0.0002453824
 O          1.5852029651        0.5748970892        0.0004386370
 H         -2.8211199580        0.5829679883       -0.0001290662
 H         -1.9738492281       -0.6957304665       -0.8789156481
 H         -1.9736707327       -0.6937066339        0.8814219882
 H         -0.6353895043        1.4358958284        0.8815773411
 H         -0.6358200565        1.4339834406       -0.8843171223
  10
  -17.7893718400000       5.087564412123381E-002 !mtd14
 C         -1.9438880103       -0.0578894671       -0.0006300770
 C         -0.6905423289        0.7929580082        0.0008053082
 N          0.5399562066       -0.0308899782        0.0001061870
 O          0.4262848850       -1.2296342550        0.0002886585
 O          1.5851574131        0.5748739708       -0.0005332885
 H         -1.9741940834       -0.6955769503        0.8789968778
 H         -2.8209765229        0.5828100734       -0.0007240922
 H         -1.9730065881       -0.6941255879       -0.8813620998
 H         -0.6357971249        1.4338476206        0.8846581751
 H         -0.6352475269        1.4362754240       -0.8812494828
  10
  -17.7893718400000       5.087564412123381E-002 !gc
 C         -1.6019820952        1.1026691886        0.0021591444
 C         -1.0101625787       -0.2918141671       -0.0021684269
 N          0.4704598345       -0.2668190983       -0.0004155202
 O          1.0201894076       -1.3425330721       -0.0020660590
 O          1.0249361876        0.8019960710        0.0024033021
 H         -2.6863448694        1.0399141633        0.0012663211
 H         -1.2821589138        1.6509829956        0.8844108745
 H         -1.2810301081        1.6570176491       -0.8759033746
 H         -1.3110608897       -0.8579106718       -0.8875676873
 H         -1.3131055176       -0.8644032876        0.8783255371
  10
  -17.7893718300000       5.087510576059607E-002 !md1
 C         -1.6020267383        1.1026533860        0.0005729780
 C         -1.0101600383       -0.2917996487       -0.0001460392
 N          0.4704708744       -0.2668233466       -0.0001816753
 O          1.0202047123       -1.3425015217       -0.0013224068
 O          1.0249519627        0.8019724842        0.0010586961
 H         -1.2802273851        1.6540459469        0.8801863539
 H         -1.2830454335        1.6538914003       -0.8801617272
 H         -2.6863876941        1.0398681873        0.0023129558
 H         -1.3121488952       -0.8607651152       -0.8833089891
 H         -1.3120359410       -0.8614916415        0.8825945068
  10
  -17.7893718200000       5.087456740565519E-002 !md6
 C         -1.6020660981        1.1026392926       -0.0019622014
 C         -1.0101620902       -0.2917769120        0.0030814344
 N          0.4704946947       -0.2668183037        0.0002698828
 O          1.0201776621       -1.3425545131       -0.0001506919
 O          1.0249927554        0.8020133708       -0.0011148020
 H         -1.2845174876        1.6495361177       -0.8858920991
 H         -2.6864224490        1.0398741627        0.0018033543
 H         -1.2788483045        1.6583577081        0.8743870013
 H         -1.3137614647       -0.8652330203       -0.8766040309
 H         -1.3103513250       -0.8569671218        0.8893059405
  10
  -17.7892349600000       4.401535695110895E-002 !input
 C         -1.7894231112        0.3796398727        0.4923379999
 C         -0.7551727315        0.4316074564       -0.6275597603
 N          0.5106498148       -0.1191609568       -0.1071381646
 O          0.6849882448       -1.3068735475       -0.2253852842
 O          1.2683559257        0.6520138465        0.4278631649
 H         -2.7345984324        0.7809020920        0.1378681099
 H         -1.9457284495       -0.6472088421        0.8152192608
 H         -1.4561314282        0.9712049854        1.3420827447
 H         -0.5739831979        1.4619144082       -0.9369532941
 H         -1.0698073414       -0.1831214009       -1.4720415159
  10
  -17.7892349500000       4.401489118529805E-002 !mtd9
 C         -1.7916590287        0.3714755137        0.4903587541
 C         -0.7533523850        0.4384535867       -0.6250245423
 N          0.5111786689       -0.1172458357       -0.1067128152
 O          0.6798782507       -1.3058523669       -0.2244612981
 O          1.2734876268        0.6508579492        0.4261459574
 H         -1.9464498402       -0.6594202085        0.8010538132
 H         -1.4634932099        0.9544300695        1.3480282113
 H         -2.7365169046        0.7741646171        0.1366323031
 H         -0.5721050413        1.4724549661       -0.9217424187
 H         -1.0644255705       -0.1667048408       -1.4777414959
  10
  -17.7892349500000       4.401489118529805E-002 !mtd2
 C         -1.7903773517        0.3764133417       -0.4912980532
 C         -0.7544031934        0.4341364134        0.6267383791
 N          0.5108840160       -0.1183747193        0.1068966775
 O          0.6827332547       -1.3065747440        0.2241466544
 O          1.2706203882        0.6517940111       -0.4266654912
 H         -2.7352890874        0.7785393740       -0.1369834375
 H         -1.4589322136        0.9645736382       -1.3441314491
 H         -1.9464263279       -0.6520377318       -0.8093992234
 H         -1.0675518432       -0.1770871815        1.4743108862
 H         -0.5732533457        1.4658362186        0.9314293656
  10
  -17.7892349400000       4.401442542441584E-002 !mtd4
 C         -1.7896144612        0.3790212675       -0.4919593797
 C         -0.7549868328        0.4319892175        0.6275627992
 N          0.5107857695       -0.1189966953        0.1071840239
 O          0.6843594269       -1.3069181495        0.2244074519
 O          1.2688853212        0.6521542288       -0.4272866855
 H         -1.4564372471        0.9696028324       -1.3424614150
 H         -1.9463210544       -0.6481246627       -0.8136677540
 H         -2.7346111037        0.7809221096       -0.1376229827
 H         -1.0693104579       -0.1822129773        1.4725436805
 H         -0.5738151431        1.4625232343        0.9362187612
  10
  -17.7892349200000       4.401349391743726E-002 !mtd6
 C         -1.7932378494        0.3663245629       -0.4887295132
 C         -0.7521612067        0.4426340842        0.6234422962
 N          0.5115568330       -0.1160607797        0.1063992520
 O          0.6764745558       -1.3052955454        0.2229598563
 O          1.2769669788        0.6503537742       -0.4244594171
 H         -1.9468001658       -0.6668510761       -0.7920238993
 H         -2.7379813458        0.7697677857       -0.1356061618
 H         -1.4682147781        0.9438186916       -1.3512013091
 H         -1.0609579800       -0.1564052311        1.4812831075
 H         -0.5708731116        1.4788548557        0.9121771283
  10
  -17.7892348000000       4.400790529004384E-002 !md4
 C         -1.7958519963        0.3566974174        0.4864254377
 C         -0.7501451419        0.4508059883       -0.6200060224
 N          0.5120994565       -0.1138244122       -0.1058292443
 O          0.6706418504       -1.3039359486       -0.2226477733
 O          1.2829506733        0.6487614607        0.4227179568
 H         -1.4769493504        0.9241554305        1.3578262666
 H         -2.7403906690        0.7611635768        0.1342402075
 H         -1.9467230068       -0.6808723863        0.7754962620
 H         -0.5689738013        1.4911492956       -0.8934088011
 H         -1.0546008883       -0.1364534522       -1.4875064656
  10
  -17.7892218000000       4.340665413881555E-002 !md3
 C         -1.7351622432        0.6105789278       -0.5072034623
 C         -0.8180907099        0.2269177886        0.6473541643
 N          0.4965323439       -0.1723885984        0.1049987376
 O          0.8233040641       -1.3264116664        0.2322764188
 O          1.1473900821        0.6852760522       -0.4387341836
 H         -2.6852512011        0.9673403524       -0.1202080900
 H         -1.2773475931        1.4010939434       -1.0974029676
 H         -1.9214435832       -0.2468801567       -1.1499030392
 H         -1.2150057629       -0.6158815644        1.2146981542
 H         -0.6572593147        1.0870523633        1.3008112416
  10
  -17.7892187100000       4.326495389709940E-002 !gc
 C         -1.7259197141        0.6539326643        0.5015904529
 C         -0.8324213649        0.1858733343       -0.6394084942
 N          0.4940700180       -0.1819863965       -0.1020815880
 O          0.8473228413       -1.3280152965       -0.2311957243
 O          1.1296443389        0.6917715010        0.4338463617
 H         -1.9115429748       -0.1577071410        1.2013344679
 H         -1.2488385316        1.4745384810        1.0324122608
 H         -2.6780248216        0.9972630906        0.1075263675
 H         -0.6810382665        0.9978640860       -1.3543581667
 H         -1.2415877747       -0.6910258918       -1.1428132697
  10
  -17.7892171100000       4.319176347267492E-002 !gc
 C         -1.7219681746        0.6720668512        0.4981936877
 C         -0.8385617554        0.1682894749       -0.6350585694
 N          0.4930345615       -0.1858855158       -0.1006344913
 O          0.8568722151       -1.3286267458       -0.2297730614
 O          1.1228216096        0.6947786356        0.4306937854
 H         -1.2395765094        1.5075672858        1.0001094532
 H         -2.6768616449        1.0045717939        0.1017114261
 H         -1.9028679222       -0.1175886348        1.2238132825
 H         -0.6919871605        0.9581307567       -1.3755530748
 H         -1.2525479991       -0.7221501223       -1.1099876328
  10
  -17.7892166200000       4.316937368036126E-002 !gc
 C         -1.7207140668        0.6792794806        0.4965892321
 C         -0.8410496486        0.1613673546       -0.6330244522
 N          0.4926811093       -0.1875923967       -0.0998291630
 O          0.8607733490       -1.3289223647       -0.2291351288
 O          1.1202359954        0.6960286294        0.4291629677
 H         -2.6713292751        1.0205290737        0.0972837293
 H         -1.9111610370       -0.1051364466        1.2254063923
 H         -1.2299747978        1.5117374717        0.9954812607
 H         -0.6957500459        0.9424710064       -1.3831285140
 H         -1.2568938949       -0.7339613464       -1.0970875565
  10
  -17.7892163900000       4.315886818882991E-002 !md2
 C         -1.8754111250        0.1314116278       -0.3703452237
 C         -0.7118330244        0.6356500797        0.4719952602
 N          0.5276661637       -0.0644017513        0.0736916344
 O          0.5340261239       -1.2665448193        0.1699799849
 O          1.4452265965        0.6125962713       -0.3196802471
 H         -1.7320994070        0.3901289367       -1.4169413146
 H         -1.9539044518       -0.9497529813       -0.2830588374
 H         -2.8023899124        0.5797571246       -0.0254325591
 H         -0.8867117109        0.4092531131        1.5265588330
 H         -0.5446565502        1.7054111479        0.3397798921
  10
  -17.7892130600000       4.300705309086651E-002 !gc
 C         -1.7103134901        0.7292768974       -0.4829438505
 C         -0.8585625582        0.1116568140        0.6164193906
 N          0.4900680246       -0.1981547693        0.0948235748
 O          0.8856227431       -1.3306324719        0.2218712017
 O          1.1036805554        0.7054129288       -0.4161409501
 H         -1.2021219852        1.5947306302       -0.9015802504
 H         -1.8921025502        0.0100178677       -1.2781642280
 H         -2.6660585402        1.0459929168       -0.0757910280
 H         -1.2863844399       -0.8173905765        0.9956018526
 H         -0.7290292569        0.8238345548        1.4354067527
  10
  -17.7892108100000       4.290477775087063E-002 !gc
 C         -1.7045112047        0.7561765811       -0.4739476907
 C         -0.8683853591        0.0844938559        0.6049013028
 N          0.4887434212       -0.2036704742        0.0919489021
 O          0.8985237765       -1.3312870433        0.2178473154
 O          1.0953855657        0.7105265819       -0.4080481951
 H         -1.8799062799        0.0753116318       -1.3035738665
 H         -2.6636606875        1.0582029850       -0.0636732928
 H         -1.1880569105        1.6374892340       -0.8467921891
 H         -1.3017999952       -0.8604872607        0.9353836190
 H         -0.7490694102        0.7556740417        1.4595421590
  10
  -17.7892101800000       4.287618426595879E-002 !gc
 C         -1.8940428021        0.0881976171        0.3299889660
 C         -0.7063240179        0.6715655269       -0.4202547001
 N          0.5307571375       -0.0561722402       -0.0627445062
 O          0.5098890308       -1.2583780198       -0.1521527834
 O          1.4787238345        0.6044873827        0.2841007722
 H         -1.9580861000       -0.9816677131        0.1465426292
 H         -1.7921643732        0.2549068242        1.3997676796
 H         -2.8123156673        0.5585902973       -0.0090549720
 H         -0.5462210523        1.7250412474       -0.1864785887
 H         -0.8461317469        0.5496185326       -1.4976796593
  10
  -17.7892100000000       4.286801819940628E-002 !md8
 C         -1.8946260472        0.0871125243       -0.3286890608
 C         -0.7062170332        0.6724482053        0.4187914486
 N          0.5308630567       -0.0559815673        0.0623165300
 O          0.5092661183       -1.2581902624        0.1513303312
 O          1.4796857848        0.6043305378       -0.2828251160
 H         -2.8127042833        0.5575536363        0.0108281820
 H         -1.7944307136        0.2519965516       -1.3989100926
 H         -1.9577775504       -0.9824756618       -0.1433303196
 H         -0.8448400923        0.5533389705        1.4967014477
 H         -0.5463446083        1.7253473659        0.1823136580
  10
  -17.7892089100000       4.281860134418496E-002 !gc
 C         -1.8971063860        0.0812037297        0.3225472052
 C         -0.7055017590        0.6774231868       -0.4107509362
 N          0.5312615554       -0.0548734860       -0.0607902391
 O          0.5060378055       -1.2570470222       -0.1487892012
 O          1.4841740911        0.6031384388        0.2775367897
 H         -1.8046042672        0.2352930717        1.3950495512
 H         -2.8142175676        0.5524653391       -0.0183966818
 H         -1.9559764141       -0.9866224535        0.1259027761
 H         -0.5467275076        1.7270620861       -0.1593721897
 H         -0.8390765035        0.5740676106       -1.4910141069
