! r2scan-3c def2/J RI DEFGRID2 scfconv6 printgap
%output
    printlevel normal
end
%cpcm
    smd true
    smdsolvent "water"
end
* xyz 0 1
C -2.1052932234 -0.5739592675 0.648257266
C -1.3675624954 -0.3444715345 -0.6666120553
C 0.0410760486 0.2530744155 -0.5229723335
C -0.0054574425 1.6477064965 0.099692228
C 0.9713056647 -0.6825280274 0.2588463528
C 2.4462316927 -0.3311522059 0.0952413131
H -1.5623465206 -1.2685683899 1.2832564449
H -2.2402930397 0.3594700515 1.1873097259
H -3.0884673941 -0.9945526646 0.4493366969
H -1.9635382388 0.3251968306 -1.2917735004
H -1.2867028705 -1.2976281155 -1.1955256297
H 0.4440534731 0.3512265477 -1.5388939937
H -0.7404914334 2.2656126057 -0.4113209301
H 0.9615982076 2.1364866318 0.0173743694
H -0.270016312 1.5928443839 1.1526243985
H 0.7138921312 -0.650771706 1.3189210558
H 0.815086578 -1.7054511989 -0.09256396
H 2.6614714378 0.6522094861 0.5044364914
H 2.7250213632 -0.3351909394 -0.9563840593
H 3.0654917814 -1.0575269299 0.6164906832
*
