! pbe def2-sv(p) def2/J RI DEFGRID1 loosescf d4 GCP(DFT/SV(P)) printgap
%output
    printlevel normal
end
* xyz 0 1
C 1.6501099566 -0.5115058344 1.7225115374
C 2.2571004719 -0.1890655256 0.3906545158
C 3.5378053683 -0.4079077214 0.1350325398
C 1.3440924836 0.3939890614 -0.6629054357
H 1.9735700827 0.7786102801 -1.4693942759
C 0.4211823031 -0.7037277399 -1.2351510066
C -1.032976207 -0.2393845216 -1.3817289104
C -1.5047067707 0.2931620758 -0.0636889567
C -0.7083852592 1.1729223615 0.5695340351
C 0.5453793792 1.5953084199 -0.0959170937
C -2.7416081744 -0.1742915553 0.5185143566
O -3.4962716599 -0.9956106695 0.0260392853
H 1.4711733576 0.4025545018 2.2866018949
H 0.6952423372 -1.0198118551 1.6061314267
H 2.3166504914 -1.143257896 2.3033464082
H 3.9801624375 -0.1655416045 -0.8163361444
H 4.1977808103 -0.8435140947 0.8660267749
H 0.7955878198 -1.0300164953 -2.2048568876
H 0.434115365 -1.573405902 -0.5757971654
H -1.0907775151 0.5474463824 -2.1378785597
H -1.6707811664 -1.0661500669 -1.6970719521
H -0.9693312983 1.5769264175 1.5360786148
H 0.2696124175 2.228667486 -0.9444080222
H 1.1815475491 2.181588763 0.5651229976
H -2.9873920056 0.278459508 1.4982446611
*
