  18
        -47.57173251
 C         -0.6913535385       -3.0034932002       -0.0022110906
 C          0.6918060273       -3.0033749473        0.0021976995
 C          1.3830490866       -1.8045041663        0.0086171472
 C          0.6983825143       -0.5955516959        0.0108828979
 C         -0.6983612906       -0.5956603905       -0.0106719764
 C         -1.3828035174       -1.8047402369       -0.0085016437
 C         -1.5120766756        0.6778637949       -0.0022235207
 F         -1.5981034727        1.2101621258        1.2272863480
 F         -1.0352011937        1.6245306449       -0.8148582113
 F         -2.7769652749        0.4568969007       -0.3961360547
 C          1.5119837169        0.6780506752        0.0022603493
 F          2.7765948852        0.4574535327        0.3970965304
 F          1.5986981093        1.2095557157       -1.2275563676
 F          1.0345353587        1.6252445082        0.8139435224
 H         -1.2374637194       -3.9336479761       -0.0024016921
 H          1.2380766756       -3.9334387960        0.0024018500
 H          2.4617172603       -1.8017299397        0.0175704688
 H         -2.4614703071       -1.8021659914       -0.0175132134
  18
        -47.57028129
 C         -0.7149266227       -2.9664016657        0.0481514306
 C          0.6448340509       -2.9899513002       -0.2072120008
 C          1.3512082652       -1.8047488140       -0.3059022781
 C          0.7112289406       -0.5795601435       -0.1511412336
 C         -0.6598438686       -0.5563860835        0.1063351886
 C         -1.3612378764       -1.7545694931        0.2040645334
 C         -1.5089080973        0.6774124361        0.3044293925
 F         -2.0914855734        0.6541322291        1.5188394118
 F         -0.8932905594        1.8491727493        0.2040690546
 F         -2.5184338824        0.6990441767       -0.5871899532
 C          1.5416201422        0.6783197489       -0.2717659457
 F          1.5333115424        1.4112226763        0.8494317522
 F          2.8321982249        0.4014593482       -0.5163265160
 F          1.1417072385        1.4647615209       -1.2800169233
 H         -1.2735048717       -3.8856491788        0.1266387535
 H          1.1610746321       -3.9289590631       -0.3305909255
 H          2.4110113271       -1.8257575241       -0.5051602905
 H         -2.4214795292       -1.7226812854        0.4039897354
