  18
        -47.57173251
 C         -0.6913535385       -3.0034932002       -0.0022110906
 C          0.6918060273       -3.0033749473        0.0021976995
 C          1.3830490866       -1.8045041663        0.0086171472
 C          0.6983825143       -0.5955516959        0.0108828979
 C         -0.6983612906       -0.5956603905       -0.0106719764
 C         -1.3828035174       -1.8047402369       -0.0085016437
 C         -1.5120766756        0.6778637949       -0.0022235207
 F         -1.5981034727        1.2101621258        1.2272863480
 F         -1.0352011937        1.6245306449       -0.8148582113
 F         -2.7769652749        0.4568969007       -0.3961360547
 C          1.5119837169        0.6780506752        0.0022603493
 F          2.7765948852        0.4574535327        0.3970965304
 F          1.5986981093        1.2095557157       -1.2275563676
 F          1.0345353587        1.6252445082        0.8139435224
 H         -1.2374637194       -3.9336479761       -0.0024016921
 H          1.2380766756       -3.9334387960        0.0024018500
 H          2.4617172603       -1.8017299397        0.0175704688
 H         -2.4614703071       -1.8021659914       -0.0175132134
