! r2scan-3c def2/J RI DEFGRID2 scfconv6 printgap
%output
    printlevel normal
end
%cpcm
    smd true
    smdsolvent "water"
end
* xyz 0 1
C 2.3958424746 0.9941005769 -0.0788202959
C 1.1593737448 0.1788499038 0.2923025408
C 1.4680628954 -1.3145652403 0.2447370865
C -0.0006246076 0.5261160932 -0.6656419005
C -1.2979244702 -0.0391994558 -0.1484282764
O -1.6957830477 -1.1465019387 -0.4586562238
C -2.0549021648 0.8530993378 0.789485237
H 2.1974108268 2.0593847011 0.0065968855
H 3.2206411353 0.7434124185 0.5833154225
H 2.698189056 0.7787939867 -1.1008355656
H 0.8605814784 0.4421778397 1.3127302941
H 0.5711119939 -1.9017479104 0.4305814494
H 2.2113136153 -1.5738700141 0.9945783918
H 1.8549936287 -1.5893815007 -0.7341334139
H 0.2156551427 0.0957236966 -1.6444830697
H -0.0820833847 1.6090643814 -0.7493304502
H -2.5149115846 1.6487719832 0.2063322745
H -2.8340573343 0.2955141345 1.3016805737
H -1.3790918992 1.3105471147 1.5061150499
*
