  7
  -14.6228539100000       0.166701938026720      !gc
 C          1.3778156357        0.0007088690       -0.0020187330
 N         -0.0906712308       -0.0000267882       -0.0053176039
 O         -0.6404426704       -1.0727723269        0.0015573600
 O         -0.6417537441        1.0720929403        0.0015710494
 H          1.7148859925        0.0017405575        1.0349390464
 H          1.7392355932        0.9008159786       -0.4941687368
 H          1.7402771076       -0.8998471747       -0.4924754276
  7
  -14.6228538900000       0.166698410001458      !mtd12
 C          1.3778621450        0.0007681975       -0.0023542569
 N         -0.0906117698       -0.0000840558        0.0057466623
 O         -0.6405381740       -1.0727685940        0.0004067510
 O         -0.6417354133        1.0720344655        0.0004202552
 H          1.7115499784        0.0083468265       -1.0404283625
 H          1.7419819147       -0.9026335792        0.4816093993
 H          1.7407112714        0.8979539215        0.4938855382
  7
  -14.6228538600000       0.166693118103405      !md2
 C          1.3778867934        0.0006918251       -0.0020294177
 N         -0.0906865274        0.0000784546       -0.0052670740
 O         -0.6404529327       -1.0727443924        0.0015426062
 O         -0.6418257883        1.0721164527        0.0015560167
 H          1.7396296802        0.9085527559       -0.4794221239
 H          1.7403986201       -0.8917497589       -0.5071830560
 H          1.7150415232       -0.0161697417        1.0347980100
  7
  -14.6228537900000       0.166680770995102      !md2
 C          1.3778819817        0.0009346694       -0.0023188887
 N         -0.0905969057       -0.0002579576        0.0055551025
 O         -0.6407314807       -1.0728434355        0.0004584655
 O         -0.6415954275        1.0719344692        0.0004720892
 H          1.7422740793       -0.9101483155        0.4668138881
 H          1.7405153106        0.8899851958        0.5088495471
 H          1.7118572344        0.0270385391       -1.0399999757
  7
  -14.6228535900000       0.166645498581235      !mtd3
 C          1.3778506919        0.0010014424       -0.0020125841
 N         -0.0906957716       -0.0003514094       -0.0053028555
 O         -0.6407510135       -1.0729398057        0.0015627562
 O         -0.6414663839        1.0719392351        0.0015766894
 H          1.7408240838       -0.9173780174       -0.4577474985
 H          1.7150077621        0.0444289989        1.0339986733
 H          1.7388232113        0.8817815314       -0.5284097139
  7
  -14.6228532200000       0.166580264292080      !gc
 C          1.3778587644        0.0010925805       -0.0023348903
 N         -0.0906726568       -0.0004790814        0.0055589237
 O         -0.6408564936       -1.0729941148        0.0004404640
 O         -0.6413732075        1.0718754505        0.0004543133
 H          1.7401954138        0.8726598876        0.5382722817
 H          1.7118882742        0.0635447602       -1.0384188378
 H          1.7423492543       -0.9248093488        0.4365155325
