! pbe def2-sv(p) def2/J RI DEFGRID1 loosescf d4 GCP(DFT/SV(P)) printgap
%output
    printlevel normal
end
* xyz 0 1
C -1.1358911144 0.04923226 -0.4634027052
C 0.1200037807 0.5950909371 0.2572795444
C 1.3944984816 -0.1607907985 -0.1641308331
O 1.2745181587 -1.5577538028 -0.0772040875
O 0.2822716688 1.9829499019 0.0647962815
O -1.8717879483 -0.8562231376 0.3235469381
H -0.8431589377 -0.5123119548 -1.3536309399
H -1.7620653497 0.8987118587 -0.7639137926
H -0.0253472063 0.4792259616 1.3383127254
H 2.2389219627 0.2027488795 0.4376671484
H 1.6058927217 0.0463282033 -1.2175544809
H 1.0636096916 -1.8116365871 0.8316179189
H 0.4885859811 2.161383673 -0.8635404574
H -2.2779339808 -0.3844300211 1.0642073142
*
