! r2scan-3c def2/J RI DEFGRID2 scfconv6 printgap
%output
    printlevel normal
end
* xyz 0 1
C -0.3004988228 -2.7618562355 -0.1789743352
C 0.4980434635 -1.5044810598 -0.0520402792
C 1.8643408887 -1.4335713959 -0.3684358233
N 2.5584484851 -0.3176278914 -0.2424987514
C 1.9295124218 0.7832161746 0.1994482181
N 0.6160892646 0.8252400442 0.4974851021
C -0.0536313795 -0.2992154409 0.3606062123
O -1.4003508405 -0.2150283649 0.7078547285
C -2.2745102509 -0.063201505 -0.3288881437
O -1.9112271188 -0.0784727257 -1.4962006552
N -3.535715702 0.0866574249 0.0775247733
C -4.595598634 0.2386840879 -0.8968145527
C -3.9466638773 0.1090535855 1.4647511004
N 2.6449972682 1.9016480197 0.3512743779
C 2.052166541 3.1370198735 0.8008647896
C 4.0521366896 1.9536199817 0.0358608315
C 2.6044305182 -2.6299786663 -0.8684683992
H 0.2530876088 -3.6084294496 0.2198937839
H -1.2402047716 -2.6668684555 0.3605963771
H -0.5265072905 -2.9575308733 -1.2277008916
H -5.3247032206 -0.5623821664 -0.7745394917
H -4.1611201488 0.1905699383 -1.8922967575
H -5.0880495914 1.2014089634 -0.759105301
H -4.5120524546 1.0213453915 1.6552098635
H -3.0734760599 0.0831998235 2.1086158739
H -4.5803974089 -0.7540779423 1.6736749989
H 2.5533785492 3.4764197068 1.7087965503
H 0.9994492804 2.9690518674 1.0039838332
H 2.1583478188 3.902017763 0.0294599629
H 4.6135829357 2.2668818035 0.917237034
H 4.2253859489 2.670660894 -0.7684959968
H 4.3778457569 0.9670458202 -0.2771753084
H 3.6216071616 -2.3464655156 -1.1170527499
H 2.6215707082 -3.402883041 -0.102775244
H 2.1075857532 -3.0333782029 -1.747590352
*
