  22
        -28.10871334
 C          3.5598954845       -0.9601440698        0.0282772005
 C          2.3078595990       -0.2620600091        0.5429800983
 C          1.7165035197        0.6852599010       -0.4982471907
 C          0.4274633236        1.3438086615        0.0005168543
 O         -0.5874657203        0.4354149555        0.3619394872
 C         -1.2002086105       -0.2386073440       -0.7184612185
 C         -2.4313838791       -0.9521546544       -0.1589258036
 O         -3.3569101944       -0.0427553223        0.3725190804
 H          3.9665570834       -1.6234081835        0.7878653630
 H          3.3338165474       -1.5510525963       -0.8570190605
 H          4.3228352239       -0.2302569670       -0.2345540688
 H          1.5557024656       -1.0056116667        0.8131483881
 H          2.5493381136        0.3046349655        1.4448136374
 H          2.4314033590        1.4766635933       -0.7318203848
 H          1.5162730566        0.1368575761       -1.4213328915
 H          0.6327163716        1.9054886685        0.9161166308
 H          0.0491298583        2.0402270707       -0.7642908223
 H         -1.5041718808        0.4861030947       -1.4884272963
 H         -0.5220754325       -0.9738888007       -1.1714242001
 H         -2.1050047166       -1.6643632480        0.6121751225
 H         -2.9441695342       -1.4957499282       -0.9548602236
 H         -2.8667206518        0.5361309178        0.9703031003
