! r2scan-3c def2/J RI DEFGRID2 scfconv6 printgap
%output
    printlevel normal
end
* xyz 0 1
C 1.8000772751 -0.0502960105 1.052351576
C 1.1373863657 -0.4230970132 -0.2705052574
C 2.1512050727 -0.3605470603 -1.411214372
C -0.0514947158 0.5066125355 -0.5814264004
C -1.2752340467 0.2007008261 0.2490649987
O -1.2438206033 0.0792507696 1.4586518599
C -2.5469554716 0.0507326718 -0.5332978017
H 2.5897428792 -0.7577931672 1.2939268895
H 2.2352478828 0.9450977717 0.9904576488
H 1.0696638302 -0.0602527545 1.8572754039
H 0.7590876246 -1.4490390126 -0.1920400478
H 1.7026221891 -0.6823711473 -2.34773115
H 2.996705259 -1.0088767112 -1.1959922786
H 2.5196325459 0.6552897847 -1.5332527272
H -0.3056056936 0.4370667345 -1.6382464432
H 0.2475981103 1.535029785 -0.3649684328
H -3.3908202459 -0.0969807519 0.1349741666
H -2.7052882791 0.9347506402 -1.1455408463
H -2.4529796146 -0.8055289917 -1.1974693716
*
