  13
  -19.5889077300000       0.333355673373141      !md5
 C          2.3934928445       -0.0543475384       -0.0001686443
 C          0.9007974790       -0.0196106597       -0.0001127325
 C          0.1286008604       -1.1840659940        0.0002264860
 N         -1.1913656309       -1.1519420634       -0.0000039514
 C         -1.7683689904        0.0422570873       -0.0002104147
 C         -1.0120830705        1.2044957362        0.0001532076
 N          0.3118382451        1.1705457910        0.0000348765
 H          2.7580002937       -0.5895776866       -0.8753369651
 H          2.7801168864        0.9604845011       -0.0104109042
 H          2.7578904950       -0.5707535957        0.8863843375
 H          0.5841596832       -2.1656758147        0.0004336275
 H         -2.8491721821        0.0541616900       -0.0006852837
 H         -1.4641334566        2.1871457830        0.0005212788
  13
  -19.5889076400000       0.333323926911918      !mtd2
 C          2.3934905620       -0.0543291395        0.0006490653
 C          0.9007795267       -0.0196314419       -0.0004004258
 C          0.1285991134       -1.1840746731       -0.0006456675
 N         -1.1913880636       -1.1519466566        0.0000623235
 C         -1.7683601507        0.0422250358        0.0006858161
 C         -1.0120407250        1.2045103650       -0.0001010591
 N          0.3118365829        1.1705671599       -0.0005198591
 H          2.7571682586       -0.5658891723        0.8903276965
 H          2.7588783209       -0.5942169468       -0.8712716005
 H          2.7800477774        0.9604713632       -0.0144195934
 H          0.5841006547       -2.1657487007       -0.0014190007
 H         -2.8491811121        0.0541563732        0.0015405818
 H         -1.4641653468        2.1871182803       -0.0006368902
  13
  -19.5889076300000       0.333320399714941      !md1
 C          2.3935093741       -0.0542508044        0.0001691660
 C          0.9007904188       -0.0196914486       -0.0001607149
 C          0.1286011602       -1.1841460048       -0.0001873838
 N         -1.1913526587       -1.1518922278        0.0000242280
 C         -1.7683903657        0.0423047449        0.0002083440
 C         -1.0120980453        1.2044984707        0.0000135375
 N          0.3118493592        1.1704727153       -0.0002126479
 H          2.7798755858        0.9604811606       -0.0147534542
 H          2.7577517334       -0.5662294861        0.8892701069
 H          2.7583887208       -0.5935245068       -0.8724427066
 H          0.5840094327       -2.1657865815       -0.0005647781
 H         -2.8491856608        0.0541308174        0.0004064091
 H         -1.4639960562        2.1871993856        0.0001910635
