  13
        -18.62270175
 C         -1.8161522803        0.5735720760       -0.3091907369
 O         -0.9969565153       -0.1378979932        0.6099825059
 C         -0.0000265275       -0.9028899039        0.0000363866
 O          0.9969882057       -0.1380275257       -0.6099465600
 C          1.8161599436        0.5736213368        0.3091140809
 H         -1.2106015294        1.2263780792       -0.9424933465
 H         -2.4992870866        1.1631335991        0.2954619600
 H         -2.3740327966       -0.1265536436       -0.9379207163
 H          0.4155863078       -1.5287115082        0.8021719950
 H         -0.4156754878       -1.5288509475       -0.8019895729
 H          2.3735758954       -0.1263806015        0.9384809734
 H          1.2105661231        1.2269453048        0.9418234168
 H          2.4995903296        1.1627561886       -0.2956254370
  13
        -18.61791265
 C         -1.9233544352        0.4632078588       -0.4491611016
 O         -1.2386254853       -0.3421510605        0.5057623627
 C          0.0423183379       -0.6948150046        0.1297016016
 O          0.8714799200        0.4429338822        0.0808029331
 C          2.2175509588        0.1318679973       -0.2197013695
 H         -2.9062143818        0.6470029299       -0.0256758719
 H         -2.0131237562       -0.0718248823       -1.3993638283
 H         -1.3948790433        1.4053023491       -0.6049442060
 H          0.4026644423       -1.4007457209        0.8929198488
 H          0.0471919563       -1.1922479849       -0.8629888043
 H          2.7448826505        1.0813466383       -0.2374817201
 H          2.2925544134       -0.3585759602       -1.1957016695
 H          2.6448077913       -0.5215162665        0.5471768590
  13
        -18.61695001
 C         -1.6588013369        0.8388894925       -0.0593733160
 O         -1.1685390930       -0.4288936033        0.3585754330
 C         -0.0130497821       -0.8964281254       -0.2713303219
 O          1.1943938503       -0.4236044458        0.2477018176
 C          1.6479464588        0.8370393858       -0.2292339807
 H         -1.5987030791        0.9362077449       -1.1470406498
 H         -1.1123020292        1.6570502188        0.4150188733
 H         -2.6992387162        0.8687984813        0.2564516804
 H         -0.0026096072       -1.9739456795       -0.0819572556
 H         -0.0644351017       -0.6958585642       -1.3580085353
 H          2.7109960984        0.8703858440       -0.0014054851
 H          1.1427770988        1.6636826290        0.2751968742
 H          1.4979641356        0.9170674453       -1.3096317301
