! r2scan-3c def2/J RI DEFGRID2 scfconv6 printgap
%output
    printlevel normal
end
* xyz 0 1
C -1.5843526539 0.4228274721 1.257965105
C -1.6558393474 -0.5806976347 0.1097480897
C -2.9802390624 -0.4574562151 -0.638678571
C -0.4980673322 -0.3671918379 -0.8702081579
O 0.7571914158 -0.6718622882 -0.2502942512
C 1.6190381136 0.3080625334 -0.0050718268
O 1.4309743738 1.468106626 -0.3100094959
C 2.8432616307 -0.2040954206 0.6940506718
H -1.6398530248 1.4405517919 0.8763914181
H -0.6504947065 0.3160496709 1.8063171616
H -2.4071167348 0.2643503677 1.9496559721
H -1.5629055583 -1.5922483788 0.5179333195
H -3.0420497217 -1.1922587695 -1.4368058869
H -3.0764406142 0.5348714087 -1.0726032512
H -3.8096004667 -0.6173314249 0.0441838466
H -0.5851109036 -1.0474785705 -1.7204810521
H -0.4743985549 0.6683562547 -1.2241011238
H 2.9164175433 -1.2792641179 0.5734750513
H 2.7615967958 0.0367797843 1.7518051676
H 3.7218185016 0.2976107094 0.3003710417
*
