! r2scan-3c def2/J RI DEFGRID2 scfconv6 printgap
%output
    printlevel normal
end
%cpcm
    smd true
    smdsolvent "water"
end
* xyz 0 1
C -4.3080659056 0.3418002978 -0.0176440682
C -2.8293797634 0.711068113 -0.0638114631
C -1.9525634909 -0.4863216069 0.2968947503
C -0.4688309936 -0.2753210236 0.1402440515
C 0.3653433312 -1.3896732279 0.0876765903
C 1.7330233471 -1.2626837346 -0.0362121584
C 2.3093035842 0.001797862 -0.1146963255
C 1.4907426656 1.1210172322 -0.064044783
C 0.1190903843 0.9786798119 0.0639200324
O 3.6644988181 0.0869623199 -0.2398812891
H -4.5837871292 -0.0028688401 0.9765818659
H -4.9238838053 1.2027602138 -0.2656404422
H -4.5266199822 -0.452432702 -0.7279552378
H -2.6477289195 1.5278346512 0.6370572969
H -2.5728442862 1.058965408 -1.0668622914
H -2.244173079 -1.3359818758 -0.326597366
H -2.1528147364 -0.7711639706 1.3351050465
H -0.067414548 -2.3779226056 0.1458700318
H 2.3748024347 -2.1289701495 -0.0765382831
H 1.9224330515 2.1100730026 -0.123968657
H -0.4878640185 1.8690304952 0.1020654017
H 3.9412616277 1.0142852353 -0.2848574288
*
