! pbe def2-sv(p) def2/J RI DEFGRID1 loosescf d4 GCP(DFT/SV(P)) printgap
%output
    printlevel normal
end
* xyz 0 1
C -1.4704082906 1.2665554256 -0.4680008955
C -1.3340091609 0.2621863691 0.6724330928
C -0.1047488134 -0.6594205682 0.6133506114
H -0.1112752164 -1.2357309196 1.5458270855
C -0.1718115886 -1.6485029198 -0.5490801099
C 1.2333598499 0.1048533079 0.6000437671
O 1.6718062654 0.529920876 -0.6711639398
H -1.4007663552 0.775290906 -1.434669573
H -2.4414073245 1.7535731067 -0.4091064581
H -0.7122559283 2.0433601052 -0.3990678422
H -2.2217726488 -0.3741111179 0.6886192765
H -1.3086487515 0.808786618 1.6185106044
H -0.0892197138 -1.1375336105 -1.5042859406
H -1.1093011842 -2.1979130938 -0.5244670413
H 0.6503906816 -2.3567194321 -0.4803048903
H 2.028039212 -0.5583168638 0.9524486952
H 1.1739164525 0.9602124334 1.2879284584
H 1.0218549772 1.1430151279 -1.040106314
*
