! r2scan-3c def2/J RI DEFGRID2 scfconv6 printgap
%output
    printlevel normal
end
* xyz 0 1
C 2.2109665574 -0.8544920907 0.4671025661
C 1.4459153348 0.4034947653 0.0672141529
C 0.346282502 0.1342804964 -0.9708979263
C -1.0804789325 0.0084490401 -0.4077959721
H -1.7436228617 -0.2633827115 -1.2386108562
C -1.2129812161 -1.0450412613 0.690806963
O -1.583050307 1.2639082681 0.0215207503
H 2.6970574139 -1.2908167226 -0.4025447209
H 1.5491250395 -1.5999038296 0.8978363732
H 2.9776375199 -0.6112533159 1.1993921521
H 1.0187062552 0.864587134 0.9600236295
H 2.1577620457 1.1188568029 -0.3491748349
H 0.320431817 0.9520209239 -1.6944865871
H 0.5786795764 -0.780591449 -1.5168593179
H -0.601824801 -0.787090331 1.5516933481
H -2.2504534571 -1.1042807166 1.0116079191
H -0.9071337395 -2.0155076855 0.3119698462
H -1.0413321777 1.5812780219 0.7576070407
*
