! r2scan-3c def2/J RI DEFGRID2 scfconv6 printgap
%output
    printlevel normal
end
%cpcm
    smd true
    smdsolvent "water"
end
* xyz 0 1
C -2.3799879908 0.1550594066 1.0427814346
C -1.796344492 0.524146328 -0.3240581001
C -0.4477661241 -0.1300282257 -0.4795285894
O -0.2753366785 -1.3048109061 -0.7312251656
O 0.538709106 0.7355527126 -0.2874386126
C 1.8943233561 0.2594254 -0.3376852489
C 2.3652201063 -0.1849838193 1.0386277598
H -1.748469742 0.5370939249 1.840879454
H -3.3726663947 0.5824593993 1.1460652482
H -2.4494141671 -0.9259290783 1.1391298066
H -1.6773635341 1.6029352642 -0.4085016009
H -2.4506774272 0.1538135175 -1.1129609369
H 1.945968585 -0.5691654567 -1.0504913036
H 2.473970219 1.1088138655 -0.7005738676
H 3.4069260319 -0.4836200125 0.9832518252
H 2.2623539389 0.6296707677 1.7502771664
H 1.7729512432 -1.0312496347 1.3797072936
*
