  22
  -34.8186149700000       0.442791856491217      !mtd9
 C         -3.6787825836       -0.1838876962        0.0388255609
 C         -3.0387426464       -1.0466819317       -0.8349012843
 C         -1.6603246891       -1.1550291204       -0.8177176323
 C         -0.9049993478       -0.3926482408        0.0679719683
 C         -1.5552596227        0.4678260311        0.9466430137
 C         -2.9343128250        0.5687744685        0.9314452448
 C          0.5634079936       -0.5231193300        0.0807963805
 C          1.1446009758       -1.7787845829        0.2399208767
 C          2.5175147293       -1.9358376872        0.2649074830
 C          3.3415669188       -0.8320231564        0.1229145423
 C          2.7886593416        0.4241683965       -0.0507025082
 C          1.4116834432        0.5724060115       -0.0703586687
 Cl         0.7549385558        2.1542496612       -0.3394633940
 H         -4.7554548106       -0.0994347130        0.0251313242
 H         -3.6152332644       -1.6366801261       -1.5324999983
 H         -1.1583608298       -1.8206674792       -1.5053658356
 H         -0.9784095345        1.0466194343        1.6527109351
 H         -3.4300710488        1.2380487670        1.6193284078
 H          0.4974262134       -2.6354838754        0.3586473734
 H          2.9447441783       -2.9186443696        0.3954143957
 H          4.4146692032       -0.9461190670        0.1417885525
 H          3.4187968481        1.2909565508       -0.1749599033
  22
  -34.8186149300000       0.442773114487317      !mtd9
 C         -3.6785806901       -0.1831098176        0.0388780580
 C         -2.9337379335        0.5665117724        0.9337366733
 C         -1.5547052272        0.4650036514        0.9483870818
 C         -0.9049159402       -0.3930228750        0.0670355883
 C         -1.6606255551       -1.1526529531       -0.8207288225
 C         -3.0389906320       -1.0436545642       -0.8374077423
 C          0.5634834509       -0.5236814131        0.0795921268
 C          1.1448796053       -1.7794284223        0.2369150081
 C          2.5178670413       -1.9360970867        0.2625655673
 C          3.3416984319       -0.8318627550        0.1227622382
 C          2.7885584795        0.4244778654       -0.0493558018
 C          1.4115938252        0.5722977508       -0.0693744780
 Cl         0.7543713928        2.1543284077       -0.3369935725
 H         -4.7552125094       -0.0981499122        0.0253962675
 H         -3.4290430187        1.2341633078        1.6235482327
 H         -0.9774713775        1.0417679203        1.6558174195
 H         -1.1589706664       -1.8165719810       -1.5102456613
 H         -3.6159214761       -1.6312237624       -1.5367075073
 H          0.4978990727       -2.6365497323        0.3537449345
 H          2.9452692952       -2.9190369722        0.3917964454
 H          4.4148365263       -0.9455685218        0.1423416163
 H          3.4186389238        1.2915472034       -0.1720593433
  22
  -34.8173362900000       0.114435029021466      !input
 C         -3.6557011640       -0.1186470292        0.0992874057
 C         -2.9838865750       -0.5752695932       -1.0219486407
 C         -1.6073573061       -0.7115953798       -0.9991712257
 C         -0.8927847078       -0.3911297300        0.1481708701
 C         -1.5707898354        0.0665044806        1.2709324767
 C         -2.9473688533        0.2017313127        1.2449897946
 C          0.5811627857       -0.5297816846        0.1719989954
 C          1.1790357307       -1.7193592519        0.5696824376
 C          2.5563542432       -1.8477175129        0.5916407716
 C          3.3569434203       -0.7827946237        0.2142932824
 C          2.7819753491        0.4109953896       -0.1852312908
 C          1.4025060653        0.5287701532       -0.2035180366
 Cl         0.6792556502        2.0224303274       -0.7033499006
 H         -4.7301956706       -0.0106714119        0.0795884226
 H         -3.5331288132       -0.8241216130       -1.9182352760
 H         -1.0782189402       -1.0638972453       -1.8730392221
 H         -1.0132218250        0.3189764731        2.1615080896
 H         -3.4680599717        0.5602957107        2.1209099651
 H          0.5477322644       -2.5455070158        0.8625975289
 H          3.0048229454       -2.7789392855        0.9032917117
 H          4.4320024006       -0.8783801735        0.2298702764
 H          3.3946508049        1.2478924051       -0.4815331229
