  22
        -34.81861497
 C         -3.6787825836       -0.1838876962        0.0388255609
 C         -3.0387426464       -1.0466819317       -0.8349012843
 C         -1.6603246891       -1.1550291204       -0.8177176323
 C         -0.9049993478       -0.3926482408        0.0679719683
 C         -1.5552596227        0.4678260311        0.9466430137
 C         -2.9343128250        0.5687744685        0.9314452448
 C          0.5634079936       -0.5231193300        0.0807963805
 C          1.1446009758       -1.7787845829        0.2399208767
 C          2.5175147293       -1.9358376872        0.2649074830
 C          3.3415669188       -0.8320231564        0.1229145423
 C          2.7886593416        0.4241683965       -0.0507025082
 C          1.4116834432        0.5724060115       -0.0703586687
 Cl         0.7549385558        2.1542496612       -0.3394633940
 H         -4.7554548106       -0.0994347130        0.0251313242
 H         -3.6152332644       -1.6366801261       -1.5324999983
 H         -1.1583608298       -1.8206674792       -1.5053658356
 H         -0.9784095345        1.0466194343        1.6527109351
 H         -3.4300710488        1.2380487670        1.6193284078
 H          0.4974262134       -2.6354838754        0.3586473734
 H          2.9447441783       -2.9186443696        0.3954143957
 H          4.4146692032       -0.9461190670        0.1417885525
 H          3.4187968481        1.2909565508       -0.1749599033
  22
        -34.81733629
 C         -3.6557011640       -0.1186470292        0.0992874057
 C         -2.9838865750       -0.5752695932       -1.0219486407
 C         -1.6073573061       -0.7115953798       -0.9991712257
 C         -0.8927847078       -0.3911297300        0.1481708701
 C         -1.5707898354        0.0665044806        1.2709324767
 C         -2.9473688533        0.2017313127        1.2449897946
 C          0.5811627857       -0.5297816846        0.1719989954
 C          1.1790357307       -1.7193592519        0.5696824376
 C          2.5563542432       -1.8477175129        0.5916407716
 C          3.3569434203       -0.7827946237        0.2142932824
 C          2.7819753491        0.4109953896       -0.1852312908
 C          1.4025060653        0.5287701532       -0.2035180366
 Cl         0.6792556502        2.0224303274       -0.7033499006
 H         -4.7301956706       -0.0106714119        0.0795884226
 H         -3.5331288132       -0.8241216130       -1.9182352760
 H         -1.0782189402       -1.0638972453       -1.8730392221
 H         -1.0132218250        0.3189764731        2.1615080896
 H         -3.4680599717        0.5602957107        2.1209099651
 H          0.5477322644       -2.5455070158        0.8625975289
 H          3.0048229454       -2.7789392855        0.9032917117
 H          4.4320024006       -0.8783801735        0.2298702764
 H          3.3946508049        1.2478924051       -0.4815331229
