! r2scan-3c def2/J RI DEFGRID2 scfconv6 printgap
%output
    printlevel normal
end
* xyz 0 1
C -2.601738096 -0.3009530853 1.5334532462
C -2.1056716629 -0.3238981542 0.0881598087
C -3.2927164465 -0.1850978169 -0.8641009894
C -1.0843007428 0.8003280309 -0.1731790624
C 0.3482261008 0.3691822243 -0.1275444768
C 0.8589856674 -0.5426904572 0.7998953538
N 2.1330144228 -0.8989371733 0.8155936922
C 2.9280854237 -0.3497300522 -0.0943726195
C 2.4354403492 0.556868287 -1.0208936429
N 1.158857961 0.9091506959 -1.0372581616
H -1.7763345939 -0.3491966987 2.2389058438
H -3.2604662515 -1.1456272356 1.7206871696
H -3.1583560013 0.614415282 1.7224441476
H -1.6239572449 -1.2888388044 -0.1057661295
H -4.021949333 -0.9692134942 -0.6751026556
H -3.779099623 0.7774414877 -0.7238440109
H -2.9674215868 -0.2625365732 -1.8987297345
H -1.2246874049 1.5950679304 0.5639413022
H -1.2479441697 1.2429052112 -1.1565045753
H 0.2371464159 -1.0059198314 1.5513552183
H 3.9653923603 -0.6489409794 -0.0709421476
H 3.0660855593 1.0123957214 -1.7712457811
*
