! pbe def2-sv(p) def2/J RI DEFGRID1 loosescf d4 GCP(DFT/SV(P)) printgap
%output
    printlevel normal
end
* xyz 0 1
C -3.5174529442 -0.5736835527 -1.8108114827
C -3.0037414889 -1.5838241293 -0.7924010459
C -2.4853868818 -0.9876813378 0.5253915258
H -2.0229853159 -1.8122218861 1.0827103154
C -3.5769010824 -0.3915508131 1.4036935351
N -1.3608846291 -0.0629781232 0.2776101651
C -0.0985041072 -0.6608201748 0.2686917955
O 0.0325566813 -1.8615160085 0.4421401291
C 1.0136177266 0.2368594328 0.0530483526
C 0.8479349186 1.5669580273 -0.155401219
N -0.433049846 2.0289487025 -0.1589215209
C -1.5691020041 1.2722934722 0.0239648928
O -2.6562671853 1.8111542304 -0.0432311235
C 1.918660383 2.5668945398 -0.3860062324
Br 2.7234052775 -0.5959348833 0.0766324315
H -3.941968126 -1.1000047562 -2.661692086
H -4.2832879853 0.0641180103 -1.3798372136
H -2.7128802347 0.0625425426 -2.1739307556
H -3.8049259102 -2.2770007626 -0.5342474124
H -2.1932964316 -2.1655549658 -1.2398405475
H -4.1397146902 0.3783950703 0.8881439003
H -4.2511507523 -1.1911295861 1.6962110498
H -3.1422612054 0.0421663117 2.3012066504
H -0.6022529658 3.0154262696 -0.3313693225
H 2.899635163 2.1055452351 -0.3330295351
H 1.8545881008 3.3546523665 0.3615383555
H 1.7940234735 3.020767868 -1.3671543214
*
