  16
  -23.1249137000000       0.150641248905779      !md2
 C         -2.5447616080        1.0056203275       -0.0001968923
 C         -1.2317055637        0.2832293641        0.0002538506
 C         -1.2004037303       -1.1084080868        0.0003477736
 C          0.0058738195       -1.7809970841       -0.0000423169
 C          1.1999143908       -1.0806116168       -0.0002672048
 C          1.1794955577        0.3073081664       -0.0001613063
 C         -0.0369938569        0.9820714430        0.0000038386
 O          2.3226021663        1.0485657443        0.0001933580
 H         -2.3975098739        2.0821848761        0.0104472497
 H         -3.1212059351        0.7411843653       -0.8858864855
 H         -3.1315168278        0.7246868360        0.8734505754
 H         -2.1276371237       -1.6621851838        0.0004877281
 H          0.0230044180       -2.8610035787       -0.0002000810
 H          2.1448971260       -1.6081501381       -0.0005636941
 H         -0.0239175960        2.0610027855        0.0001999347
 H          3.0893329624        0.4630844165       -0.0002626765
  16
  -23.1249132000000       0.150561566091572      !mtd11
 C         -2.5446118156        1.0058843399       -0.0027263755
 C         -1.2318475466        0.2829602116        0.0028531511
 C         -1.2003414335       -1.1085061043        0.0015789613
 C          0.0060443688       -1.7810916819       -0.0004200187
 C          1.1998508825       -1.0806181212       -0.0011209428
 C          1.1792803386        0.3074462107       -0.0000177935
 C         -0.0371100586        0.9821164655        0.0019009278
 O          2.3226740595        1.0484676987       -0.0001923467
 H         -3.1752184882        0.6559233807        0.8129993909
 H         -2.3999080212        2.0778465371        0.1011834782
 H         -3.0738659385        0.8165558801       -0.9362951228
 H         -2.1274982470       -1.6624002686        0.0023463573
 H          0.0230883852       -2.8610978902       -0.0010577032
 H          2.1450911761       -1.6077180682       -0.0021235204
 H         -0.0244158234        2.0610440332        0.0029316057
 H          3.0888713294        0.4624597019       -0.0013358222
  16
  -23.1249131700000       0.150556786462866      !mtd9
 C         -2.5447646188        1.0057246370        0.0028093216
 C         -1.2317163049        0.2830684764       -0.0028203291
 C         -1.2003202963       -1.1084365225       -0.0013668811
 C          0.0059992869       -1.7810863940        0.0003879955
 C          1.1998252195       -1.0805874523        0.0009793773
 C          1.1793041513        0.3074614402       -0.0000464478
 C         -0.0370730818        0.9822326132       -0.0020017408
 O          2.3226859936        1.0483733236        0.0002669753
 H         -3.1750700248        0.6554315102       -0.8129845536
 H         -3.0739037814        0.8161294574        0.9363420245
 H         -2.4002722228        2.0776575533       -0.1011446738
 H         -2.1275562781       -1.6621630522       -0.0016605639
 H          0.0229981314       -2.8610858063        0.0010927962
 H          2.1450487456       -1.6076842519        0.0017761536
 H         -0.0241797321        2.0611616125       -0.0030525525
 H          3.0890137872        0.4624540834       -0.0000733094
  16
  -23.1248923100000       0.147269815998259      !gc
 C         -2.5397808282        1.0135048448        0.0083026016
 C         -1.2342640209        0.2776702138       -0.0084254215
 C         -1.2005266037       -1.1121760189       -0.0044066917
 C          0.0081999059       -1.7829696269        0.0011546576
 C          1.2001370924       -1.0811112154        0.0031619693
 C          1.1774207133        0.3077836698        0.0000419025
 C         -0.0392431011        0.9793917426       -0.0058401011
 O          2.3201340667        1.0500050895        0.0005659175
 H         -2.4683584192        1.9413777124       -0.5540469799
 H         -3.3349344207        0.4032248082       -0.4132425362
 H         -2.8120675110        1.2625876735        1.0343762092
 H         -2.1253371942       -1.6699506225       -0.0068061798
 H          0.0265973061       -2.8629469816        0.0022516405
 H          2.1463237666       -1.6065432638        0.0055045901
 H         -0.0307837725        2.0583830950       -0.0093621692
 H          3.0869397924        0.4647418950        0.0039752730
  16
  -23.1248006800000       0.133660632468788      !md4
 C         -2.5462431414        0.9933693736        0.0057471687
 C         -1.2382842789        0.2610391019       -0.0057299792
 C         -1.1898763124       -1.1254624988       -0.0028842394
 C          0.0283734364       -1.7845412330        0.0009094041
 C          1.2123955253       -1.0751495904        0.0020995517
 C          1.1756412818        0.3156986556       -0.0001263574
 C         -0.0460127111        0.9736804073       -0.0040041810
 O          2.3580160333        0.9923407832        0.0006151606
 H         -2.5400762267        1.8056098610       -0.7188990892
 H         -3.3688680176        0.3220965764       -0.2264150299
 H         -2.7247392870        1.4258649125        0.9905151119
 H         -2.1088033983       -1.6927893988       -0.0050644905
 H          0.0546076968       -2.8641170931        0.0017073545
 H          2.1693626916       -1.5714602029        0.0038719404
 H         -0.0699915747        2.0568229405       -0.0064180411
 H          2.1889414417        1.9421090283       -0.0015308504
  16
  -23.1248006500000       0.133656389366536      !gc
 C         -2.5468905678        0.9922279885       -0.0070022668
 C         -1.2379303520        0.2618033407        0.0071068597
 C         -1.1899113098       -1.1249350196        0.0036650825
 C          0.0279878433       -1.7842567472       -0.0010851885
 C          1.2123295435       -1.0751138456       -0.0026900610
 C          1.1759884520        0.3155564091        0.0001081649
 C         -0.0456509818        0.9739996990        0.0049409557
 O          2.3583357851        0.9922705115       -0.0007840452
 H         -2.5203049532        1.8474105177        0.6655258806
 H         -2.7570058762        1.3624989628       -1.0108834189
 H         -3.3606500740        0.3358787997        0.2903503481
 H         -2.1092272622       -1.6916925163        0.0056573430
 H          0.0541050212       -2.8638217336       -0.0024679996
 H          2.1690589074       -1.5718973340       -0.0050530346
 H         -0.0689043712        2.0571409182        0.0077810199
 H          2.1891343453        1.9420170418        0.0014325685
  16
  -23.1248006300000       0.133653560706200      !mtd5
 C         -2.5460002966        0.9937668076        0.0051435456
 C         -1.2384027568        0.2607757045       -0.0050848706
 C         -1.1899194679       -1.1256769349       -0.0026688696
 C          0.0284662467       -1.7846182293        0.0007906721
 C          1.2124226637       -1.0751665197        0.0019456951
 C          1.1755830242        0.3156621670       -0.0000734212
 C         -0.0461160331        0.9734950002       -0.0035800802
 O          2.3579026839        0.9924780689        0.0004617588
 H         -3.3721034412        0.3167378401       -0.1957213977
 H         -2.7098288276        1.4554568499        0.9790325980
 H         -2.5500165844        1.7843945085       -0.7432384803
 H         -2.1087918561       -1.6932153578       -0.0041722018
 H          0.0547970177       -2.8641696475        0.0016473684
 H          2.1693964662       -1.5714944239        0.0036661782
 H         -0.0702859399        2.0566606586       -0.0056462172
 H          2.1885941238        1.9423086306       -0.0008631338
