  16
        -23.12491370
 C         -2.5447616080        1.0056203275       -0.0001968923
 C         -1.2317055637        0.2832293641        0.0002538506
 C         -1.2004037303       -1.1084080868        0.0003477736
 C          0.0058738195       -1.7809970841       -0.0000423169
 C          1.1999143908       -1.0806116168       -0.0002672048
 C          1.1794955577        0.3073081664       -0.0001613063
 C         -0.0369938569        0.9820714430        0.0000038386
 O          2.3226021663        1.0485657443        0.0001933580
 H         -2.3975098739        2.0821848761        0.0104472497
 H         -3.1212059351        0.7411843653       -0.8858864855
 H         -3.1315168278        0.7246868360        0.8734505754
 H         -2.1276371237       -1.6621851838        0.0004877281
 H          0.0230044180       -2.8610035787       -0.0002000810
 H          2.1448971260       -1.6081501381       -0.0005636941
 H         -0.0239175960        2.0610027855        0.0001999347
 H          3.0893329624        0.4630844165       -0.0002626765
