! pbe def2-sv(p) def2/J RI DEFGRID1 loosescf d4 GCP(DFT/SV(P)) printgap
%output
    printlevel normal
end
* xyz 0 1
C -1.7773290812 -1.1536450597 0.1869755782
C -1.5005300641 0.1865067139 -0.4657993126
S 0.0178932638 1.0028481919 0.1471842132
C 1.333486557 -0.074704146 -0.540713722
C 1.9047410716 -1.0279320985 0.4923784699
H -1.7838514436 -1.0504526324 1.2695054991
H -2.748859712 -1.5211376641 -0.135821473
H -1.0234235348 -1.8858781229 -0.0918546398
H -2.288304058 0.9025171429 -0.2345790362
H -1.4056141859 0.0990021692 -1.5482417801
H 0.8988469475 -0.6029492784 -1.3873847174
H 2.1028249621 0.6073597416 -0.9016358471
H 2.3205141343 -0.4681716084 1.3265812372
H 1.1364791375 -1.6935564683 0.8769628599
H 2.6944177486 -1.625847383 0.0426814256
*
