  23
        -44.65369837
 C         -3.9219149905       -0.6101067501        0.0005544331
 O         -2.9775298670        0.4364615462       -0.0002151392
 C         -1.6471727161        0.0996539502        0.0000692015
 C         -1.1459398558       -1.1801170703       -0.0001428796
 C          0.2368709806       -1.3946237123       -0.0000587225
 C          1.0888731874       -0.2948362887        0.0002248200
 C          0.6029555480        1.0230269630        0.0001622834
 C         -0.7823733792        1.2149855767        0.0002587184
 O         -1.3416880404        2.4556326458        0.0005800069
 O          1.5584292981        1.9814658399        0.0000245473
 C          1.2143593462        3.3509051777       -0.0016319585
 Cl         2.7977872467       -0.4834417833        0.0007291906
 C          0.7208700244       -2.7783158714       -0.0005856908
 O          0.0037552584       -3.7490174080       -0.0008466137
 H         -3.8229600687       -1.2337058692       -0.8918338403
 H         -4.8963062355       -0.1245538896       -0.0006792832
 H         -3.8239351115       -1.2316648883        0.8946540271
 H         -1.7782667905       -2.0525828167       -0.0004083060
 H         -2.3033622991        2.3366246346        0.0005420975
 H          0.6464049527        3.6216078464       -0.8932679337
 H          2.1671332581        3.8786755785       -0.0011368968
 H          0.6445741771        3.6233702023        0.8882626260
 H          1.8189242761       -2.8778419379       -0.0008223428
