  23
        -44.65369837
 C         -3.9219149905       -0.6101067501        0.0005544331
 O         -2.9775298670        0.4364615462       -0.0002151392
 C         -1.6471727161        0.0996539502        0.0000692015
 C         -1.1459398558       -1.1801170703       -0.0001428796
 C          0.2368709806       -1.3946237123       -0.0000587225
 C          1.0888731874       -0.2948362887        0.0002248200
 C          0.6029555480        1.0230269630        0.0001622834
 C         -0.7823733792        1.2149855767        0.0002587184
 O         -1.3416880404        2.4556326458        0.0005800069
 O          1.5584292981        1.9814658399        0.0000245473
 C          1.2143593462        3.3509051777       -0.0016319585
 Cl         2.7977872467       -0.4834417833        0.0007291906
 C          0.7208700244       -2.7783158714       -0.0005856908
 O          0.0037552584       -3.7490174080       -0.0008466137
 H         -3.8229600687       -1.2337058692       -0.8918338403
 H         -4.8963062355       -0.1245538896       -0.0006792832
 H         -3.8239351115       -1.2316648883        0.8946540271
 H         -1.7782667905       -2.0525828167       -0.0004083060
 H         -2.3033622991        2.3366246346        0.0005420975
 H          0.6464049527        3.6216078464       -0.8932679337
 H          2.1671332581        3.8786755785       -0.0011368968
 H          0.6445741771        3.6233702023        0.8882626260
 H          1.8189242761       -2.8778419379       -0.0008223428
  23
        -44.64907476
 C         -3.9669094010       -0.8016939477        0.0590390237
 O         -3.1036690733        0.3098744983       -0.0167509018
 C         -1.7708206607        0.0804896150       -0.0203257754
 C         -1.1640337659       -1.1579822395        0.0523831295
 C          0.2266306945       -1.2958099899        0.0304008522
 C          1.0370351463       -0.1594420039       -0.0602998242
 C          0.4525247212        1.1030320894       -0.0983130839
 C         -0.9482313326        1.2204393296       -0.0912375553
 O         -1.5102054882        2.4405732205       -0.1542471228
 O          1.0937375150        2.3159846857       -0.1901400548
 C          2.2631163294        2.5509525722        0.5757760678
 Cl         2.7540144614       -0.3444791018       -0.1715245625
 C          0.7704330832       -2.6549205708        0.1000725606
 O          0.0978495670       -3.6546949266        0.1687554845
 H         -4.9740132023       -0.3892585781        0.0428633874
 H         -3.8177809330       -1.3622723589        0.9867605395
 H         -3.8335880537       -1.4711181108       -0.7959555927
 H         -1.7335277274       -2.0711013393        0.1192481238
 H         -0.7911614322        3.0926422930       -0.1972758764
 H          2.2389235171        2.0053510239        1.5205436188
 H          2.2737952493        3.6230400644        0.7762020307
 H          3.1632328610        2.2827999315        0.0201254422
 H          1.8720129972       -2.7163821360        0.0903410034
  23
        -44.64901375
 C         -3.9570160060       -0.7521374443       -0.0995297266
 O         -3.0774799996        0.3435740619        0.0132942072
 C         -1.7487109584        0.0947916613        0.0273429299
 C         -1.1583530594       -1.1494963628       -0.0689287747
 C          0.2311110427       -1.3160313850       -0.0317590060
 C          1.0532024409       -0.1948065812        0.0913695326
 C          0.4830167723        1.0729588535        0.1594226743
 C         -0.9092541979        1.2221434100        0.1450122399
 O         -1.4430390970        2.4505032983        0.2500418860
 O          1.2037705392        2.2445216340        0.2988495770
 C          1.9588621387        2.6388991816       -0.8379251395
 Cl         2.7677962267       -0.3565509479        0.2017683828
 C          0.7586931984       -2.6801852975       -0.1225100972
 O          0.0763680021       -3.6697663004       -0.2273494529
 H         -3.8438050210       -1.4440136829        0.7402929678
 H         -3.8054349086       -1.2920293627       -1.0389917283
 H         -4.9577100331       -0.3243844777       -0.0846290395
 H         -1.7426839552       -2.0508834511       -0.1646849663
 H         -0.7077364569        3.0762022495        0.3730788933
 H          2.7333870410        1.9111331145       -1.0840007968
 H          2.4234475898        3.5846298349       -0.5661357802
 H          1.3092786013        2.7815967662       -1.7076636955
 H          1.8594598511       -2.7514592144       -0.0909349523
  23
        -44.64877837
 C         -4.0898417014       -0.3289990693        0.0037353134
 O         -3.0632029470        0.6344989536       -0.0013529072
 C         -1.7609153304        0.1950708453       -0.0011201771
 C         -1.3591589042       -1.1191261201       -0.0010698319
 C          0.0042504692       -1.4432208440       -0.0007492547
 C          0.9391140930       -0.4090389267       -0.0004412860
 C          0.5499848310        0.9442803643       -0.0004293297
 C         -0.8146697354        1.2422098255       -0.0009239546
 O         -1.2802859733        2.5216378307       -0.0011363269
 O          1.5735107466        1.8263021493        0.0002880897
 C          1.3354230188        3.2180744930        0.0019509185
 Cl         2.6208591968       -0.7237271896       -0.0000590688
 C          0.3682690540       -2.8628261001       -0.0004010007
 O          1.4723638074       -3.3394706259        0.0007425981
 H         -4.0481781128       -0.9594825824       -0.8889609193
 H         -5.0207342076        0.2355478796        0.0050941350
 H         -4.0429221979       -0.9553540021        0.8990712684
 H         -2.0784899300       -1.9216230902       -0.0013207310
 H         -2.2479402159        2.4754319436       -0.0011775956
 H          0.7892100069        3.5344828036       -0.8883317951
 H          2.3259686004        3.6710913948        0.0026122548
 H          0.7890137168        3.5322754279        0.8929323118
 H         -0.5274777776       -3.5196039966       -0.0012591416
  23
        -44.64848631
 C         -3.9691646491       -0.8241476667        0.0112449270
 O         -3.1126821522        0.2950150650       -0.0029314607
 C         -1.7783134584        0.0723557357       -0.0031583144
 C         -1.1657799789       -1.1656691827       -0.0033354178
 C          0.2242580891       -1.2876587222       -0.0016980788
 C          1.0338841241       -0.1432260308        0.0004153363
 C          0.4451038895        1.1173012960       -0.0010713007
 C         -0.9621809428        1.2155277279       -0.0033748524
 O         -1.5439722377        2.4304412325       -0.0049803548
 O          1.0178219652        2.3639557040        0.0009292128
 C          2.4116766003        2.5817338726       -0.0005094308
 Cl         2.7561690183       -0.3686230837        0.0055891738
 C          0.7690252701       -2.6488119911       -0.0018419888
 O          0.0945137472       -3.6500060607       -0.0050456498
 H         -3.8337816900       -1.4440101144       -0.8800935112
 H         -4.9787460790       -0.4174843649        0.0196217695
 H         -3.8151022929       -1.4349705197        0.9057745896
 H         -1.7282552448       -2.0853284492       -0.0050462466
 H         -0.8427491201        3.0999649490       -0.0049178315
 H          2.8873391684        2.1749857942        0.8934671085
 H          2.5188419974        3.6667816449       -0.0013680537
 H          2.8856607676        2.1735862651       -0.8947294950
 H          1.8698951012       -2.7151594381        0.0013009044
  23
        -44.64794512
 C         -3.9712039984       -0.7901892921       -0.0372685465
 O         -3.0992662306        0.3162864765        0.0225901495
 C         -1.7519944877        0.0668769356        0.0195748292
 C         -1.1569714609       -1.1730359676       -0.0438666076
 C          0.2348956863       -1.2919345970       -0.0313600278
 C          1.0343775547       -0.1448904191        0.0448983773
 C          0.4571102924        1.1267779204        0.0731419946
 C         -0.9481139986        1.2171601203        0.0664755191
 O         -1.5139726470        2.4400307780        0.1041235561
 O          1.0801617303        2.3275982531        0.1556070992
 C          2.3294625109        2.5510674608       -0.4684513130
 Cl         2.7510471865       -0.3427606948        0.1590315368
 C          0.7878621758       -2.6479908448       -0.0948874741
 O          0.1191392023       -3.6518885675       -0.1460571419
 H         -4.9761593839       -0.3721689082       -0.0209707421
 H         -3.8352080659       -1.4492657448        0.8243469585
 H         -3.8268234395       -1.3593893531       -0.9595453075
 H         -1.7231900433       -2.0887692578       -0.0976043217
 H         -2.4759835691        2.3253817899        0.1093093992
 H          2.4165064932        2.0060081315       -1.4104051184
 H          3.1627306028        2.2880414703        0.1872763969
 H          2.3601399279        3.6225122013       -0.6687954469
 H          1.8891789603       -2.7040945156       -0.0989166686
  23
        -44.64777657
 C         -3.9732264304       -0.8035868856       -0.0076339552
 O         -3.1053930299        0.3076310114        0.0031324216
 C         -1.7570903443        0.0619960428        0.0027482374
 C         -1.1578772516       -1.1781732606        0.0008911287
 C          0.2333009245       -1.2876172375        0.0002532549
 C          1.0344105770       -0.1361028525        0.0006577569
 C          0.4537680388        1.1335637038        0.0020936905
 C         -0.9559123144        1.2114950900        0.0040706803
 O         -1.5233026492        2.4356992667        0.0067418481
 O          1.0218367494        2.3606157385        0.0023424439
 C          2.4141657636        2.5813062889       -0.0111843674
 Cl         2.7562025524       -0.3615787418       -0.0000673541
 C          0.7848930384       -2.6462423472       -0.0004753330
 O          0.1135334723       -3.6499073868       -0.0013312885
 H         -4.9796694396       -0.3889060076       -0.0109843823
 H         -3.8359657367       -1.4229235025        0.8828115428
 H         -3.8258326730       -1.4130836873       -0.9032076761
 H         -1.7196907001       -2.0980340575        0.0003030349
 H         -2.4850807601        2.3186260138        0.0072438865
 H          2.5163683615        3.6665956249       -0.0144946603
 H          2.8851621317        2.1754683702       -0.9091079117
 H          2.9021395285        2.1793707138        0.8793046245
 H          1.8855968322       -2.7080153921       -0.0000608539
  23
        -44.64754434
 C         -3.9661548055        0.8163405323       -0.0559402785
 O         -3.1216457426       -0.3118492836        0.0535888435
 C         -1.7767485462       -0.1793607146        0.0152738270
 C         -1.0607082935       -1.3682545436        0.0836003119
 C          0.3274248628       -1.4136436267        0.0432428391
 C          1.0474873516       -0.2161516122       -0.0646129285
 C          0.3638704120        0.9908455530       -0.0959947191
 C         -1.0480481579        1.0159738243       -0.0689202905
 O         -1.6470763053        2.2317936866       -0.1269804385
 O          0.9153044337        2.2477047803       -0.1969887273
 C          2.0644273297        2.5722713725        0.5673925609
 Cl         2.7717855166       -0.2653547073       -0.2061210898
 C          0.9794924455       -2.7274965772        0.1100961896
 O          0.3938652525       -3.7771831531        0.1936259817
 H         -3.8098502560        1.3453929396       -0.9977167711
 H         -3.8237398986        1.5085568515        0.7757687794
 H         -4.9780739745        0.4146918312       -0.0267717178
 H         -1.6021661661       -2.2979762911        0.1607722029
 H         -0.9355672349        2.8923414161       -0.1810009909
 H          1.9897514336        3.6406095761        0.7749321639
 H          2.9804924665        2.3804518630        0.0066389526
 H          2.0877388957        2.0200735378        1.5081821873
 H          2.0827804331       -2.6971648668        0.0826863513
  23
        -44.64742747
 C         -3.9304646836        0.8644618037        0.0536549386
 O         -3.1047266343       -0.2748148109       -0.0824058676
 C         -1.7589614208       -0.1644790646       -0.0196749400
 C         -1.0574954991       -1.3601271228       -0.1090534919
 C          0.3308273478       -1.4324786516       -0.0488411694
 C          1.0624022493       -0.2486499956        0.0939882573
 C          0.3913410608        0.9641013060        0.1513463235
 C         -1.0143608496        1.0195778447        0.1127463465
 O         -1.5856339756        2.2443108852        0.2134253020
 O          1.0158512116        2.1894217034        0.3030179996
 C          1.7765482405        2.6364343410       -0.8105626102
 Cl         2.7821597238       -0.2777759344        0.2427281173
 C          0.9688656499       -2.7520148621       -0.1341210587
 O          0.3745022411       -3.7930730892       -0.2527109896
 H         -4.9489520571        0.4845258957       -0.0117159219
 H         -3.7574623900        1.5855194346       -0.7472890183
 H         -3.7842422788        1.3535512238        1.0184730796
 H         -1.6125341714       -2.2790244346       -0.2170206075
 H         -0.8571523990        2.8771206323        0.3495721088
 H          2.1502124135        3.6200126546       -0.5326133848
 H          1.1495805242        2.7169614597       -1.7044872268
 H          2.6172245565        1.9741740680       -1.0202362093
 H          2.0717462383       -2.7307053745       -0.0839136076
  23
        -44.64585301
 C         -4.1509271687       -0.5186403647        0.0604238332
 O         -3.1979163903        0.5146360171       -0.0167757183
 C         -1.8852974130        0.1797858573       -0.0181522654
 C         -1.3766147747       -1.1017590146        0.0567577112
 C          0.0007298455       -1.3498609067        0.0385595992
 C          0.8975114168       -0.2759095854       -0.0541856679
 C          0.4071834143        1.0286216358       -0.0937629863
 C         -0.9788559831        1.2536541736       -0.0890799486
 O         -1.4474745607        2.5124822045       -0.1545804325
 O          1.1348889672        2.1898633822       -0.1859388986
 C          2.3337988484        2.3350941304        0.5568943991
 Cl         2.5873447450       -0.5900480735       -0.1683589898
 C          0.4305604921       -2.7482131409        0.1134277507
 O          1.5564143391       -3.1742512167        0.1404597835
 H         -4.0770481774       -1.1983093424       -0.7943470223
 H         -5.1195764729       -0.0225411024        0.0433116208
 H         -4.0522787136       -1.0882166206        0.9900050405
 H         -2.0390411072       -1.9497752714        0.1240875210
 H         -0.6794596018        3.1065641248       -0.1954308301
 H          3.1976368662        1.9892712084       -0.0119389491
 H          2.2828870987        1.7994783495        1.5057875187
 H          2.4315367057        3.4047679389        0.7470375697
 H         -0.4320328119       -3.4453370329        0.1524525163
  23
        -44.64581521
 C         -4.0160371061        1.0686878276        0.0626096040
 O         -3.2604879033       -0.1200782073       -0.0576510846
 C         -1.9069799551       -0.0871761339       -0.0207882922
 C         -1.2843590821       -1.3265771348       -0.0944648976
 C          0.0975778299       -1.4815181823       -0.0580717564
 C          0.9084300533       -0.3402355768        0.0555731665
 C          0.3137734184        0.9156559928        0.0911138047
 C         -1.0909399622        1.0494190838        0.0657617013
 O         -1.5970937870        2.3062677512        0.1277781418
 O          0.9543552105        2.1275553120        0.1956129943
 C          2.1419014376        2.3660430256       -0.5417661114
 Cl         2.6156747682       -0.5225187973        0.2012084822
 C          0.6317588143       -2.8457772405       -0.1348531888
 O          1.7870807688       -3.1826017084       -0.1478530227
 H         -5.0558698584        0.7456354753        0.0366244212
 H         -3.8249588293        1.7527752535       -0.7659352038
 H         -3.8148227640        1.5785713910        1.0063270701
 H         -1.9191012923       -2.1949385445       -0.1745407725
 H         -0.8361335294        2.9097050407        0.1804538563
 H          2.1555443920        3.4395132554       -0.7359774369
 H          2.1392909326        1.8239874250       -1.4882335422
 H          3.0265352224        2.0918667666        0.0337458748
 H         -0.1765737889       -3.6021378213       -0.1905004447
  23
        -44.64564538
 C         -4.1395536000       -0.4727971794        0.1026557141
 O         -3.1731132202        0.5446364108       -0.0117974676
 C         -1.8655638657        0.1926507698       -0.0213097757
 C         -1.3717915407       -1.0921842778        0.0832670301
 C          0.0022503758       -1.3661236302        0.0517812653
 C          0.9088847713       -0.3074323141       -0.0772960182
 C          0.4318290907        1.0003628133       -0.1518568499
 C         -0.9445631782        1.2532118874       -0.1418273194
 O         -1.3860091385        2.5168824686       -0.2531076369
 O          1.2269524658        2.1195536626       -0.2989582580
 C          2.0714231831        2.4363382814        0.7989710491
 Cl         2.5974894701       -0.6033668309       -0.1894202741
 C          0.4182920057       -2.7670298008        0.1514129458
 O          1.5416396772       -3.1997581633        0.1563739138
 H         -4.0385536563       -1.0188833076        1.0459276167
 H         -4.0838627100       -1.1755143447       -0.7346035996
 H         -5.1013751049        0.0362620016        0.0824424324
 H         -2.0458491238       -1.9281517394        0.1824091672
 H         -0.6029355665        3.0842492282       -0.3671458904
 H          2.8155065808        1.6593267645        0.9748714790
 H          1.4835325403        2.5895261986        1.7097507903
 H          2.5702988761        3.3632773861        0.5229267583
 H         -0.4485876439       -3.4552976380        0.2313757966
  23
        -44.64557076
 C         -3.9809164044        1.1122116866        0.0546890634
 O         -3.2436957265       -0.0856467788       -0.0884000106
 C         -1.8908926741       -0.0735012220       -0.0284799584
 C         -1.2817395367       -1.3171699193       -0.1295065726
 C          0.0982928170       -1.4968120721       -0.0752803860
 C          0.9190412284       -0.3696466919        0.0769553396
 C          0.3361839415        0.8900378433        0.1445439762
 C         -1.0610414847        1.0506697904        0.1105143756
 O         -1.5405793443        2.3127240804        0.2209984455
 O          1.0391133384        2.0686839601        0.3066214300
 C          1.8911688041        2.4465069573       -0.7660913406
 Cl         2.6233305694       -0.5360379062        0.2256552481
 C          0.6200018825       -2.8643749622       -0.1743005379
 O          1.7729708947       -3.2084306375       -0.1601434641
 H         -5.0253808978        0.8104552713       -0.0093266467
 H         -3.7558114560        1.8213066255       -0.7439230059
 H         -3.7954321205        1.5848131602        1.0209139202
 H         -1.9271256042       -2.1741520773       -0.2434538065
 H         -0.7639313119        2.8880854890        0.3489480665
 H          2.2985582669        3.4157079061       -0.4847056593
 H          1.3246286032        2.5393598317       -1.6982183286
 H          2.7044059211        1.7346516183       -0.9061448413
 H         -0.1921691194       -3.6120918567       -0.2735544001
  23
        -44.64414740
 C         -4.1535812987       -0.5095966167       -0.0337300497
 O         -3.1931046887        0.5188467585        0.0224610596
 C         -1.8673233034        0.1643167172        0.0180754039
 C         -1.3698675167       -1.1180480689       -0.0428383641
 C          0.0101806082       -1.3470338684       -0.0333003221
 C          0.8966079502       -0.2612351204        0.0412265978
 C          0.4137485448        1.0523868435        0.0660928053
 C         -0.9790080672        1.2503662702        0.0610784746
 O         -1.4517242908        2.5126123708        0.0972476693
 O          1.1205799422        2.2039882906        0.1426521954
 C          2.4015170027        2.3307073851       -0.4439324206
 Cl         2.5854332276       -0.5880249714        0.1589162311
 C          0.4481442841       -2.7439151362       -0.0977307132
 O          1.5737976072       -3.1686911765       -0.1369733864
 H         -4.0612150075       -1.0907460206       -0.9557960476
 H         -5.1200473092       -0.0088866951       -0.0170909706
 H         -4.0744796117       -1.1757871827        0.8301019051
 H         -2.0297376571       -1.9689859928       -0.0939005029
 H         -2.4194881752        2.4711935689        0.1033727824
 H          2.4720224662        1.7846074476       -1.3860337797
 H          3.1909252877        1.9976807871        0.2326674132
 H          2.5192202254        3.3979639820       -0.6348974933
 H         -0.4128432936       -3.4445325324       -0.1166848495
