! r2scan-3c def2/J RI DEFGRID2 scfconv6 printgap
%output
    printlevel normal
end
%cpcm
    smd true
    smdsolvent "water"
end
* xyz 0 1
C -2.509940639 -0.0184578286 -0.2221634222
C -1.204802909 0.0141284859 0.5623496891
C 0.0066776828 -0.0124999648 -0.3621916341
O 1.1826991691 0.0213901162 0.4259607392
C 2.3656594838 -0.0029234494 -0.3404699806
H -2.5786912543 0.8417239232 -0.8835900866
H -2.5698452351 -0.9215506012 -0.8245678419
H -3.3560612216 0.000211284 0.4585482131
H -1.1439257856 -0.8439433049 1.2332022931
H -1.1513148898 0.9167132178 1.1726723097
H -0.0003798154 -0.9256997134 -0.9773041095
H -0.0093709759 0.8547577016 -1.0404525542
H 2.4244533228 -0.9175315516 -0.9414682946
H 3.1893591407 0.0259705668 0.3682389197
H 2.4186349149 0.8651915782 -1.0074091761
*
