! pbe def2-sv(p) def2/J RI DEFGRID1 loosescf d4 GCP(DFT/SV(P)) printgap
%output
    printlevel normal
end
* xyz 0 1
C -2.0624505027 0.5685380165 -0.6878962597
C -1.3809060815 0.3467451526 0.6574768648
C 0.0388297198 -0.2215374516 0.5324111886
C 0.9651259003 0.6849874497 -0.2898553946
C 2.4404150213 0.3385571034 -0.1127800671
O -0.0754031253 -1.5189379208 -0.0303228373
H -1.5819105953 1.369682491 -1.2425811894
H -2.0167543724 -0.3445730726 -1.2757672573
H -3.105658726 0.8330907878 -0.5363382342
H -1.3334541873 1.2828359794 1.2155727169
H -1.9665110575 -0.3685177837 1.2382987563
H 0.4527971748 -0.3117277568 1.5522700212
H 0.6929912508 0.5986128356 -1.3425909987
H 0.7986110053 1.7160840529 0.0245979455
H 2.6588756133 -0.6623873559 -0.4780225144
H 3.0567039968 1.0391452778 -0.6702523147
H 2.7217854454 0.3934457867 0.9368949441
H 0.8073889437 -1.8987799118 -0.1247524785
*
