! r2scan-3c def2/J RI DEFGRID2 scfconv6 printgap
%output
    printlevel normal
end
* xyz 0 1
C -2.289057254 1.09484417 0.1884637853
C -1.8100100903 -0.3521413765 0.1594140279
C -0.5587588153 -0.6084231837 -0.6864400916
C 0.7872047434 -0.1485730581 -0.0832838351
C 1.0621841861 1.3381305845 -0.3441538825
C 1.915335088 -0.9738133902 -0.7233555727
O 0.7387162957 -0.4069695682 1.3159230284
H -2.3231449633 1.5094897859 -0.8166256353
H -1.6390066677 1.7121246858 0.801365103
H -3.2890354982 1.1431408357 0.6140949094
H -1.6180828745 -0.6934219585 1.1773071596
H -2.6099026478 -0.9707954528 -0.2549330174
H -0.4925572879 -1.6883804929 -0.8351964483
H -0.6756993188 -0.1429525332 -1.6660317288
H 2.0563925569 1.6027464056 0.0117692246
H 0.3377336873 1.9611003867 0.1692017443
H 1.0118887849 1.5454816716 -1.408864199
H 2.8875579459 -0.6251711066 -0.3808991802
H 1.8760348283 -0.8842085602 -1.8049897886
H 1.8074562146 -2.0217472266 -0.4526735332
H 1.5869564954 -0.1583562404 1.7059563249
*
