  28
        -32.51992852
 C         -5.4544051381        0.2399060944       -0.0344689272
 C         -4.1471369131       -0.5340633134        0.0829965204
 C         -2.9311988257        0.3799924599       -0.0469231979
 C         -1.6178880591       -0.3895424892        0.0707611958
 C         -0.4023128875        0.5244879918       -0.0618959004
 C          0.9069481417       -0.2502459229        0.0539370856
 C          2.1241112814        0.6611693379       -0.0742141197
 C          3.4314687448       -0.1007245529       -0.0236873578
 O          3.4976492299       -1.3012213220       -0.0804084035
 C          4.6540806119        0.7763099196        0.1109206409
 H         -5.5221207628        0.9950057875        0.7458674641
 H         -6.3063853468       -0.4292432566        0.0608301335
 H         -5.5165692109        0.7394460978       -0.9989662956
 H         -4.1127054244       -1.0440099134        1.0484544823
 H         -4.1070558094       -1.2990817268       -0.6957234591
 H         -2.9661126866        0.8896842031       -1.0129482332
 H         -2.9723557321        1.1460912877        0.7313396335
 H         -1.5824756870       -0.8981610380        1.0369362863
 H         -1.5775837726       -1.1565623664       -0.7059574458
 H         -0.4389148344        1.0338295375       -1.0283061611
 H         -0.4414961215        1.2910513343        0.7164623430
 H          0.9468969853       -0.7639685145        1.0164822145
 H          0.9550980547       -1.0144635627       -0.7236019392
 H          2.0921115256        1.1902639582       -1.0313809464
 H          2.1246344319        1.4187512573        0.7128083389
 H          4.7209217500        1.1241013350        1.1406191827
 H          4.5819669833        1.6455900462       -0.5370452375
 H          5.5507666517        0.2084747520       -0.1221415681
