  12
        -19.46128556
 C         -3.0352358665        0.0000246357        0.0000468620
 C         -2.3429125524       -1.1996423631        0.0000026791
 C         -0.9588175409       -1.2072828994       -0.0000599476
 C         -0.2822116955        0.0000124958       -0.0001101866
 C         -0.9588045832        1.2072622740       -0.0000695769
 C         -2.3429721403        1.1996188601        0.0000170288
 Br         1.6262132271        0.0000015253        0.0000168393
 H         -4.1146252213       -0.0001592279        0.0002249306
 H         -2.8790807180       -2.1366599328        0.0001426260
 H         -0.4115632116       -2.1374137593        0.0001246500
 H         -0.4115725062        2.1374521236        0.0001179390
 H         -2.8790196914        2.1367432529        0.0001181719
