! pbe def2-sv(p) def2/J RI DEFGRID1 loosescf d4 GCP(DFT/SV(P)) printgap
%output
    printlevel normal
end
* xyz 0 1
C -2.7904175648 0.1760167765 -0.0245070537
C -1.3838323407 -0.2133095153 0.4116168307
C -0.3209892865 0.4136689878 -0.5025939833
C 1.0496810772 -0.0749792663 -0.1048751537
O 1.3716553648 -1.2413568515 -0.154924592
O 1.9218113162 0.8290259903 0.3341167002
H -3.5247540022 -0.2741398799 0.6376587625
H -2.984921825 -0.1668149632 -1.0375007873
H -2.915868942 1.2554672233 0.0058116141
H -1.215777912 0.1117580268 1.4402929242
H -1.2681193494 -1.2983128292 0.3841688382
H -0.5052431495 0.0825624371 -1.5264501382
H -0.3873216019 1.5004678424 -0.4632478234
H 1.5812892186 1.7426072314 0.3407130664
*
