! r2scan-3c def2/J RI DEFGRID2 scfconv6 printgap
%output
    printlevel normal
end
%cpcm
    smd true
    smdsolvent "water"
end
* xyz 0 1
C 2.3109631347 0.0496048255 -0.7188551188
C 1.5850718571 -0.2414230505 0.5900779775
C 0.2489708645 0.4931756896 0.7166849458
C -0.8284385002 0.0780110695 -0.2924441378
C -2.0324661042 1.0112857566 -0.1659176199
C -1.2712690006 -1.3689482008 -0.086741488
H 1.7576191793 -0.3404600566 -1.5690295332
H 2.4371409642 1.1218583145 -0.8524822136
H 3.2947388555 -0.4140047642 -0.7148159036
H 1.4303584988 -1.3167468534 0.6895787021
H 2.2220305206 0.072678177 1.420704558
H -0.1431240791 0.3329576326 1.7245029561
H 0.4348526603 1.5644586968 0.6038778006
H -0.4251078034 0.1802740617 -1.3047729931
H -1.7396754208 2.043648752 -0.3439491825
H -2.4604703967 0.9432598573 0.8322263155
H -2.8008919703 0.7438568931 -0.8876707661
H -2.0757193545 -1.6179292943 -0.7752154765
H -0.4516806983 -2.0603049445 -0.262525438
H -1.6329910584 -1.5122148386 0.9294753761
*
