  24
        -25.31642718
 C          0.7173729905       -1.6679163908       -0.8973423078
 C          0.3956970013       -0.9612718105        0.4189026653
 H          0.9262830691       -1.5020784150        1.2132675815
 C         -1.1031620513       -1.0248525802        0.7373517043
 C         -1.9313921360       -0.1483837309       -0.1972688857
 C         -1.4532176379        1.2978260690       -0.1301779042
 C          0.0313161938        1.3857741929       -0.4688252775
 C          0.8611132909        0.5051381965        0.4671060940
 H          0.6872580927        0.8566350675        1.4921522919
 C          2.3515893386        0.6544725266        0.1702994897
 H          0.2911654784       -2.6693075431       -0.8897576091
 H          0.3119762332       -1.1340557233       -1.7514445178
 H          1.7919218423       -1.7622316024       -1.0301541938
 H         -1.4464394466       -2.0600652308        0.6749878299
 H         -1.2591864262       -0.6864177667        1.7651758283
 H         -1.8475200797       -0.5147988785       -1.2215664874
 H         -2.9844652138       -0.2050513232        0.0879135868
 H         -2.0304659111        1.9158124671       -0.8216915163
 H         -1.6164293046        1.6847075254        0.8790136722
 H          0.1900084153        1.0787580620       -1.5040786706
 H          0.3685576173        2.4212854414       -0.3796674700
 H          2.9360362391       -0.0216089896        0.7908790838
 H          2.6744942040        1.6729169605        0.3765297963
 H          2.5641359116        0.4394533948       -0.8737880348
  24
        -25.30914488
 C          1.0966989271       -1.8339870809       -0.6783450095
 C          0.3280566941       -0.9982447508        0.3445677236
 H          0.5060820365       -1.4376147510        1.3329870843
 C         -1.1766819433       -1.0866783474        0.0319444780
 C         -1.9358501181        0.1241160945        0.5603061833
 C         -1.4971158517        1.3892368753       -0.1863083155
 C         -0.0239048856        1.3050982036       -0.6039384845
 C          0.7746867930        0.4803564195        0.4055612181
 H          0.5315859269        0.8590518744        1.4046936724
 C          2.2769821077        0.6676376940        0.2085980277
 H          2.1421960254       -1.9398018992       -0.4030490912
 H          0.6607541932       -2.8297789267       -0.7340362970
 H          1.0405151611       -1.3844836308       -1.6672781799
 H         -1.3215251358       -1.1422873559       -1.0490379826
 H         -1.5843089700       -2.0033645050        0.4629265256
 H         -3.0103575696       -0.0247138449        0.4379013199
 H         -1.7418171324        0.2289090449        1.6295491961
 H         -2.1158229526        1.5273300838       -1.0751888564
 H         -1.6520017970        2.2582877185        0.4561641977
 H          0.0637278485        0.8434499302       -1.5888556921
 H          0.3951655671        2.3102388299       -0.6791672214
 H          2.8365823445        0.0375511477        0.8964575754
 H          2.5472924406        1.7039112791        0.4025944478
 H          2.5744071925        0.4268459316       -0.8084407339
  24
        -25.30814283
 C          1.1505137412       -2.0946356640        0.4850303496
 C          0.2226552986       -0.8827219129        0.5332983082
 H         -0.1974141147       -0.8407183670        1.5445571718
 C         -0.9329823723       -1.0526534232       -0.4616114528
 C         -1.6834629057        0.2618786402       -0.7160515930
 C         -1.4760126347        1.2328575499        0.4391375975
 C         -0.0012142940        1.6282132105        0.5475229367
 C          0.9650227173        0.4450382078        0.3166536407
 H          1.7619953937        0.5000179378        1.0678406363
 C          1.6384035247        0.5394807190       -1.0526250275
 H          1.9821944846       -1.9684512661        1.1751420234
 H          0.6044370292       -2.9924204987        0.7677907945
 H          1.5499188361       -2.2467573878       -0.5144141508
 H         -0.5472059946       -1.4454850004       -1.4039872823
 H         -1.6209205947       -1.8005192919       -0.0610192101
 H         -1.3245442045        0.7337654446       -1.6326866457
 H         -2.7484475826        0.0627726774       -0.8507997106
 H         -2.0796597762        2.1301043739        0.2871029793
 H         -1.8140303456        0.7669023723        1.3665951689
 H          0.2103645151        2.4047169861       -0.1899520398
 H          0.1735157040        2.0638241635        1.5334794269
 H          2.3673886617       -0.2564595056       -1.1804631729
 H          2.1641333881        1.4886587373       -1.1395041569
 H          0.9134635518        0.4770007455       -1.8583434202
