! pbe def2-sv(p) def2/J RI DEFGRID1 loosescf d4 GCP(DFT/SV(P)) printgap
%output
    printlevel normal
end
* xyz 0 1
C 1.5106314074 -0.7868747416 1.6357624032
C 2.2168953732 -0.1759097357 0.4633682288
C 3.5312125216 -0.2523445224 0.3218545739
C 1.3650180768 0.5318639598 -0.5646096719
H 2.0324440016 1.119714787 -1.199984775
C 0.6270193149 -0.5015569315 -1.442201735
C -0.8352080361 -0.1183689871 -1.7055777204
C -1.5145752491 0.0955599846 -0.3880077414
C -0.8855542516 0.8825764754 0.5055506058
C 0.3896438213 1.5249861458 0.1167408297
C -2.7652742328 -0.5615784988 -0.0786195231
O -3.3850476723 -0.4607165358 0.9672060985
H 2.1534600639 -1.5035552992 2.1397860863
H 1.2364505401 -0.01540716 2.354076252
H 0.5949615531 -1.2878557622 1.3289696674
H 4.0435229139 0.1987878485 -0.510868466
H 4.1504011532 -0.7724979016 1.032946209
H 1.1502367149 -0.6157542543 -2.3909617502
H 0.6382878433 -1.4741084491 -0.9469567268
H -0.866476619 0.8054403653 -2.2883076767
H -1.3301276246 -0.9018192684 -2.2796445318
H -1.3119488756 1.0489632413 1.4835885118
H 0.153308203 2.3023965397 -0.6161645346
H 0.8792584943 2.0037845446 0.9630412788
H -3.1646267754 -1.2018401245 -0.888496734
*
