! r2scan-3c def2/J RI DEFGRID2 scfconv6 printgap
%output
    printlevel normal
end
%cpcm
    smd true
    smdsolvent "water"
end
* xyz 0 1
C 2.7188585273 -0.3551241227 0.2579469061
C 1.3359416307 -0.7235367904 -0.2736112874
C 0.2357084687 0.2279318943 0.2186051023
H 0.2048207066 0.192826295 1.3209131222
C -1.1596298796 -0.1421264692 -0.3191666612
C -1.5513124029 -1.5823135485 0.0013383545
C -2.2000433136 0.8178683652 0.2592533536
O 0.485437729 1.5622599475 -0.1977477874
H 3.4383402863 -1.1188238336 -0.0259301012
H 2.7042012239 -0.2862568924 1.3440179384
H 3.0607670707 0.5921288535 -0.1522810582
H 1.3456929807 -0.7081564445 -1.3652003052
H 1.0923433859 -1.7321330772 0.0563978465
H -1.1301132143 -0.0053192896 -1.405321745
H -2.5942171403 -1.740361783 -0.2614264884
H -0.9524212268 -2.2948522099 -0.5579051955
H -1.4325315953 -1.7792573713 1.0646144678
H -1.9070433317 1.8460385588 0.0653960818
H -2.2855759351 0.6759874609 1.3346400871
H -3.1717852905 0.63965257 -0.1937586519
H 1.3158209967 1.8607203964 0.1945052882
*
