  12
        -20.11021550
 C         -1.8905296447       -0.0000841761       -0.0000672229
 C         -1.1999230210       -1.2007748717        0.0000255859
 C          0.1840987663       -1.2100073490        0.0000566754
 C          0.8530484867        0.0000816611       -0.0000714668
 C          0.1839517490        1.2101008020       -0.0000213213
 C         -1.2001163290        1.2006541736        0.0000521081
 F          2.2037894066        0.0000191156        0.0000138514
 H         -2.9699703637       -0.0001604986        0.0000509431
 H         -1.7393494572       -2.1358633278       -0.0000791313
 H          0.7437598008       -2.1320257486       -0.0000986775
 H          0.7432548797        2.1323331448        0.0000222505
 H         -1.7395646691        2.1357107587        0.0001490915
