! r2scan-3c def2/J RI DEFGRID2 scfconv6 printgap
%output
    printlevel normal
end
%cpcm
    smd true
    smdsolvent "water"
end
* xyz 0 1
C -2.195593869 -0.7761502873 1.3060517029
C -2.2904798199 -0.1155621929 -0.0666759355
C -2.2593742134 1.4042158192 0.0621070903
C -1.1827939467 -0.6157303787 -1.018888126
C 0.193028953 -0.2934491987 -0.5320673168
C 0.9023650041 -1.1460188718 0.3185502183
N 2.105111971 -0.8460275475 0.78047059
C 2.6289078927 0.3109925525 0.3929132456
C 1.9469327424 1.1534026943 -0.4723843485
N 0.7406759662 0.8527715456 -0.9298839288
H -2.2159833465 -1.8596685844 1.2163936742
H -3.0340200654 -0.4689143068 1.9263173429
H -1.2762874874 -0.4870286999 1.8117783904
H -3.2449423607 -0.4036373027 -0.5201129797
H -3.079702164 1.7459948463 0.6885839728
H -1.3246745162 1.7329408774 0.5112623796
H -2.3488960903 1.8733919665 -0.9138898239
H -1.3218000521 -0.1380335071 -1.9888523159
H -1.2784356462 -1.6965339918 -1.1323183285
H 0.4976314366 -2.0974027445 0.6338802428
H 3.6081744806 0.5495845646 0.7808121306
H 2.3676968605 2.0886743811 -0.8136128181
*
