! pbe def2-sv(p) def2/J RI DEFGRID1 loosescf d4 GCP(DFT/SV(P)) printgap
%output
    printlevel normal
end
* xyz 0 1
C 1.8972975199 1.1377546006 -0.0012515966
C 1.3877638501 -0.254516548 -0.3770764821
H 2.0124710095 -0.6409930109 -1.2024233539
C -0.058375778 -0.2482187592 -0.8965073793
C -1.1129364181 0.4149254363 -0.0018349209
C -2.3846110372 0.6643677524 -0.8131242868
C -1.4352874241 -0.4426550653 1.2190346159
O 1.4887328533 -1.1552718321 0.7151426361
H 1.4190179655 1.480040183 0.9124937891
H 2.9729073119 1.1151973593 0.1600170775
H 1.6821687649 1.8393623061 -0.8015426066
H -0.0453103752 0.2626045661 -1.8614563979
H -0.3490776078 -1.2867188243 -1.0694298142
H -0.7347690798 1.3832792973 0.3378489068
H -3.1493943892 1.1166965871 -0.1863364269
H -2.7730821755 -0.272907466 -1.2057195673
H -2.1862456535 1.3317700594 -1.6486456243
H -1.893479538 -1.3793898377 0.9080641638
H -0.5303622086 -0.6776872995 1.7708007286
H -2.1265453687 0.0773976554 1.8787002929
H 2.4014996164 -1.1640311595 1.0321807389
*
