! pbe def2-sv(p) def2/J RI DEFGRID1 loosescf d4 GCP(DFT/SV(P)) printgap
%output
    printlevel normal
end
* xyz 0 1
C 2.1772897827 -0.0808063836 -1.0186845466
C 1.5933576989 -0.616662477 0.2860898746
C 0.2447944745 0.0166556111 0.6733481999
H -0.0113121385 -0.3349124901 1.6801302303
C -0.8958372013 -0.4156421605 -0.2967255829
C -1.8873795477 -1.3198504065 0.4348807123
C -1.6312386025 0.7765070382 -0.9076193957
O 0.3580194049 1.4155334732 0.8416685282
H 1.4699462553 -0.177957572 -1.8389836693
H 3.0732213827 -0.6403874983 -1.2751963528
H 2.4565187904 0.965421505 -0.9179167203
H 1.4471308151 -1.695303218 0.2124290276
H 2.3030969877 -0.4280236303 1.0943536089
H -0.4545048295 -0.9972631509 -1.1119517793
H -1.3767671778 -2.1779182052 0.8661318387
H -2.3790748956 -0.7709306287 1.2350513979
H -2.6478806007 -1.6830112098 -0.2525165161
H -0.9827092711 1.3434235192 -1.5714018299
H -1.9940686417 1.4384519959 -0.1247032936
H -2.4811368974 0.4242792826 -1.4869378195
H 0.6493273275 1.8052066812 0.0064967274
*
