! r2scan-3c def2/J RI DEFGRID2 scfconv6 printgap
%output
    printlevel normal
end
* xyz 0 1
C -3.2357022201 -0.0823234939 -0.5845665124
C -1.7110886813 -0.0567053601 -0.5754914506
C -1.1675130571 -0.1957975525 0.8457269576
C 0.3604707021 -0.1561816378 0.982680867
C 1.088747406 -1.2001552757 0.111157977
C 1.773697824 -0.4000981883 -0.9949458227
C 2.1858646907 0.8821010863 -0.2796287275
C 0.9711447021 1.2059295037 0.5910020964
H -3.6350211948 0.7372691682 0.009062098
H -3.6137138057 0.0126505667 -1.599753632
H -3.6040638135 -1.016832957 -0.1667519937
H -1.3389454304 -0.8724493279 -1.196946922
H -1.3708415161 0.88042547 -1.0187940169
H -1.5852022822 0.6056575244 1.4612147508
H -1.523656298 -1.1429673064 1.2597846728
H 0.5806614719 -0.3575722602 2.0358148671
H 1.8463849562 -1.7116486948 0.7069490231
H 0.4090817298 -1.9554789991 -0.2787986694
H 2.6197916494 -0.9307918421 -1.4296401502
H 1.0646560227 -0.1681417388 -1.7904225531
H 3.0572135928 0.687892028 0.348207228
H 2.4313129874 1.6901509368 -0.9674393194
H 1.2442171677 1.7911621911 1.4683052557
H 0.2527529688 1.7891776325 0.0159611147
*
