! r2scan-3c def2/J RI DEFGRID2 scfconv6 printgap
%output
    printlevel normal
end
%cpcm
    smd true
    smdsolvent "water"
end
* xyz 0 1
C -2.5593751673 -0.5414126728 0.3449601041
C -1.8133387499 0.6977065108 -0.13849263
C -0.3851748095 0.4012939728 -0.5964072995
C 0.5279041946 -0.0359376037 0.5549793099
C 1.8933375039 -0.2040732949 0.1020581378
C 3.0143524885 -0.3362461089 -0.2964287755
H -2.550764269 -1.3131170479 -0.4218710947
H -3.5940823275 -0.2929543101 0.5690641492
H -2.1079111584 -0.9456982284 1.2471810866
H -2.35971171 1.1326070856 -0.978635272
H -1.7899550626 1.4428905157 0.6601614113
H -0.400488561 -0.3804370267 -1.3594256666
H 0.0358282687 1.3002876623 -1.0533516588
H 0.1820361428 -0.9838499443 0.9731069735
H 0.5093101483 0.718302233 1.3466996399
H 4.0001236656 -0.4555666806 -0.6334162318
*
