! r2scan-3c def2/J RI DEFGRID2 scfconv6 printgap
%output
    printlevel normal
end
* xyz 0 1
C -2.8498008582 -2.2603207479 1.311501767
C -3.3709468132 -0.8966068124 0.8728934363
C -2.7790641187 -0.3299810827 -0.4276115717
H -3.4088910502 0.5226500555 -0.7085055352
C -2.7714698183 -1.3098405963 -1.5926500658
N -1.4537222443 0.2897416168 -0.1963164897
C -0.2790976764 -0.4621335502 -0.1846299967
O -0.2687294827 -1.6734355585 -0.2990442532
C 0.9320341372 0.3167238435 -0.0207653928
C 0.9365231653 1.6583843151 0.1726951364
N -0.2767880485 2.2752281581 0.2025664976
C -1.4839778124 1.6486016987 0.0317753072
O -2.515579284 2.2974967013 0.0791248571
C 2.1558569393 2.482745062 0.3604143884
Br 2.5486601491 -0.6800700333 -0.0597894606
H -3.2685065841 -2.5121724343 2.2827118115
H -3.1428195432 -3.0299098219 0.6035977596
H -1.7667281478 -2.2690316245 1.3912215519
H -4.4504009193 -0.965513403 0.7283088208
H -3.1958511618 -0.1621814862 1.6635108231
H -2.402761452 -0.8192209092 -2.4908732269
H -2.1481832502 -2.1736067933 -1.3882923101
H -3.79118412 -1.6388309933 -1.768965939
H -0.3292031436 3.2765311234 0.3627551873
H 2.8511777993 2.3097278423 -0.45914856
H 2.6659473894 2.1861263145 1.2758808589
H 1.9109593797 3.5379195796 0.4119732852
*
