  14
  -22.0717535700000       0.500005290973705      !gc
 C         -2.2378599801        0.2721604561       -0.0000331417
 C         -1.3398898963        1.3292047921        0.0000210912
 C          0.0180016503        1.0791937351        0.0000471121
 C          0.4891286972       -0.2346866686        0.0000496670
 C         -0.4202059245       -1.2918300856       -0.0000120738
 C         -1.7780310393       -1.0363126442       -0.0000584643
 C          1.9333515885       -0.4941525550        0.0001268009
 O          2.7945644352        0.3480636049       -0.0001413758
 H         -3.3000579880        0.4678626770       -0.0000136733
 H         -1.7033257064        2.3460243864        0.0001034180
 H          0.7377319083        1.8841909197        0.0001127609
 H         -0.0556513137       -2.3093163767       -0.0000310170
 H         -2.4822605309       -1.8550627473       -0.0000834776
 H          2.1913949422       -1.5730802934        0.0004760137
  14
  -22.0717535500000       0.499994709026295      !mtd4
 C         -2.2525115519        0.0906757450       -0.0001105281
 C         -1.5885967060        1.3083332945        0.0001098066
 C         -0.2073345028        1.3425868247        0.0001706308
 C          0.5204726221        0.1532046055        0.0000893223
 C         -0.1555071390       -1.0680429135       -0.0000014163
 C         -1.5358730864       -1.0968578781       -0.0001231981
 C          1.9876490845        0.1772935621        0.0000790563
 O          2.7023369056       -0.7923320303       -0.0001799504
 H         -3.3323623327        0.0680308274       -0.0002756603
 H         -2.1522300048        2.2295235731        0.0000477075
 H          0.3157691017        2.2883929169        0.0001862127
 H          0.4258650521       -1.9780162607        0.0001138812
 H         -2.0578697665       -2.0421222743        0.0000391793
 H          2.4156657124        1.2007742902        0.0001988959
