  20
        -27.11620239
 C         -3.5760482975        0.3925286784        0.1757196133
 C         -2.1608222852        0.0123737476        0.5887490060
 C         -1.3538159588       -0.4850825564       -0.6077854803
 O         -0.0513476529       -0.9220465813       -0.2193105936
 C          0.8976330468        0.0156378173       -0.0978501374
 O          0.7226893071        1.1828706847       -0.3236972886
 C          2.1981874495       -0.6055685706        0.3620450327
 C          3.3770874686        0.3353467426        0.1569132748
 H         -3.5549438624        1.1831624587       -0.5703988307
 H         -4.0961657079       -0.4650190431       -0.2454194538
 H         -4.1365635884        0.7468542143        1.0367122544
 H         -2.1891316945       -0.7736174506        1.3465069224
 H         -1.6533334660        0.8795930163        1.0152488573
 H         -1.8268777105       -1.3589340589       -1.0612147764
 H         -1.2550745840        0.3128404975       -1.3514381128
 H          2.0816634139       -0.8440878049        1.4224546705
 H          2.3379634872       -1.5464667193       -0.1718087377
 H          4.2859096482       -0.1013435861        0.5625250295
 H          3.5246456909        0.5326197667       -0.9017349257
 H          3.1870128700        1.2834144242        0.6528154379
