  6
         -7.81795312
 N          0.7277401877       -0.0000016668       -0.0889346177
 N         -0.7277367116       -0.0000138276        0.0889500476
 H          1.0660765253       -0.8148075860        0.4219017398
 H          1.0660197489        0.8148693250        0.4217540527
 H         -1.0660852960       -0.8147317841       -0.4220419663
 H         -1.0660592840        0.8148853699       -0.4218282543
