  13
        -16.68530761
 C         -1.7712498846       -0.9016383190        0.0953444112
 C         -1.3747317249        0.5399842759       -0.1996998353
 C          0.0232355918        0.8531880729        0.3345343469
 C          1.0845219242        0.0692158019       -0.3784220141
 O          2.0230932175       -0.4680032588        0.1371996543
 H         -1.0677141046       -1.5930057584       -0.3635664203
 H         -1.7756545000       -1.0834299672        1.1676558078
 H         -2.7650845246       -1.1116414348       -0.2925704350
 H         -2.0945255859        1.2184536096        0.2619462096
 H         -1.3968238694        0.7136578466       -1.2780913749
 H          0.2495932562        1.9105292035        0.1648212504
 H          0.0853711131        0.6591142669        1.4066385402
 H          0.9394904257        0.0330283662       -1.4781485697
  13
        -16.68516491
 C         -2.3757798206       -0.2626924263        0.0656325955
 C         -0.8775195955       -0.5200586965       -0.0198799198
 C         -0.0754736657        0.7739799314        0.0815773520
 C          1.4056310011        0.5551379665        0.0023368836
 O          1.9547718830       -0.5015558500       -0.1263910187
 H         -2.9262957030       -1.1968536641       -0.0100714346
 H         -2.6311545788        0.2089795302        1.0123943107
 H         -2.6998131365        0.3915446714       -0.7412291077
 H         -0.6381237867       -1.0110892304       -0.9646029371
 H         -0.5692485576       -1.1908115150        0.7838437901
 H         -0.3523331720        1.4654640882       -0.7200245770
 H         -0.2852600787        1.2870315240        1.0250504247
 H          1.9899979048        1.4964552326        0.0757479665
  13
        -16.68484830
 C         -2.4722713711       -0.3520804539        0.1845550540
 C         -1.1890704272        0.4326685957       -0.0573787487
 C          0.0375083448       -0.4812146579       -0.0323204818
 C          1.2998844681        0.2608543075       -0.3515080710
 O          2.3398368843        0.1547422827        0.2340441278
 H         -3.3317433072        0.3136085153        0.1741648959
 H         -2.6120275398       -1.1055865450       -0.5875022421
 H         -2.4380659384       -0.8523054696        1.1495783599
 H         -1.0809996735        1.1997556327        0.7120673370
 H         -1.2458383919        0.9357898747       -1.0253668393
 H          0.1383833716       -0.9736650132        0.9363133960
 H         -0.0787377885       -1.2551170142       -0.7979421621
 H          1.2006365856        0.9467871278       -1.2180400717
  13
        -16.68468447
 C         -1.6413774509       -0.9203728910       -0.1579186081
 C         -1.1172167181        0.3386771174        0.5218361007
 C         -0.0510520130        1.0347692280       -0.3217673536
 C          1.2612687125        0.3069423507       -0.3488285818
 O          1.5517811311       -0.6563083049        0.3008414869
 H         -0.8324967637       -1.6294146929       -0.3123504243
 H         -2.4001894821       -1.3954058394        0.4588308732
 H         -2.0840849383       -0.6806960156       -1.1231074762
 H         -0.6816803608        0.0729529033        1.4864239755
 H         -1.9431747981        1.0305090008        0.6993115710
 H         -0.3916452187        1.1624983206       -1.3528498003
 H          0.1578969879        2.0357959930        0.0689765729
 H          1.9942006071        0.7649958282       -1.0461485856
  13
        -16.68423763
 C         -2.4870341160       -0.3020476435        0.2845303264
 C         -1.2343391499        0.2321565433       -0.3989941612
 C          0.0305164800       -0.2131808194        0.3271953379
 C          1.2969694038        0.2771594997       -0.3124589513
 O          2.4044835806        0.0270086404        0.0719254025
 H         -2.4768138289       -1.3895809448        0.3042142716
 H         -2.5474621266        0.0585176816        1.3090630012
 H         -3.3788165093        0.0223425949       -0.2459505257
 H         -1.2723479791        1.3234894383       -0.4246447849
 H         -1.2041396413       -0.1251575400       -1.4307865743
 H          0.0212356025        0.1404672111        1.3625660599
 H          0.0800814504       -1.3048443345        0.3770088105
 H          1.1371148508        0.9164883193       -1.2047760472
  13
        -16.68285698
 C         -2.3770115614       -0.3291860412       -0.1005365199
 C         -0.9423172059       -0.3343358944        0.4088674397
 C         -0.0592083845        0.6377663519       -0.3868842352
 C          1.3672233315        0.5368021387        0.0775533000
 O          2.0393991908       -0.4529410313        0.0064705325
 H         -2.4149344496       -0.6380288660       -1.1426435099
 H         -2.9862269395       -1.0147465145        0.4831063287
 H         -2.8091584552        0.6660780152       -0.0212621937
 H         -0.5207427461       -1.3371531119        0.3244309071
 H         -0.9265538980       -0.0510803095        1.4637158328
 H         -0.0965042463        0.3518662244       -1.4410491277
 H         -0.4274025026        1.6581884507       -0.2824270620
 H          1.7766486283        1.4647913454        0.5253326604
  13
        -16.68208408
 C         -1.5436228178       -0.9900884444       -0.0785900718
 C         -1.2259446728        0.4317190006        0.3635523426
 C         -0.0254358693        1.0307372147       -0.3865794422
 C          1.2808608000        0.4107073378        0.0287767549
 O          1.5184124102       -0.7631276712        0.0746961042
 H         -1.8089647582       -1.0112144969       -1.1336721417
 H         -0.6832541228       -1.6349058308        0.0746801854
 H         -2.3795958630       -1.3840114342        0.4947413060
 H         -1.0168663796        0.4448002652        1.4356194816
 H         -2.0930858662        1.0722430497        0.1863854917
 H         -0.1553640898        0.8461576233       -1.4566838245
 H          0.0164246291        2.1084062469       -0.2259279959
 H          2.0612548885        1.1489301044        0.3071606945
