  13
  -16.6853076100000       6.298341830342465E-002 !mtd2
 C         -1.7712498846       -0.9016383190        0.0953444112
 C         -1.3747317249        0.5399842759       -0.1996998353
 C          0.0232355918        0.8531880729        0.3345343469
 C          1.0845219242        0.0692158019       -0.3784220141
 O          2.0230932175       -0.4680032588        0.1371996543
 H         -1.0677141046       -1.5930057584       -0.3635664203
 H         -1.7756545000       -1.0834299672        1.1676558078
 H         -2.7650845246       -1.1116414348       -0.2925704350
 H         -2.0945255859        1.2184536096        0.2619462096
 H         -1.3968238694        0.7136578466       -1.2780913749
 H          0.2495932562        1.9105292035        0.1648212504
 H          0.0853711131        0.6591142669        1.4066385402
 H          0.9394904257        0.0330283662       -1.4781485697
  13
  -16.6853076000000       6.298275181984915E-002 !mtd4
 C         -1.7719988431       -0.9012858901       -0.0899930388
 C         -1.3740129909        0.5397151409        0.2060423397
 C          0.0219127403        0.8533343752       -0.3332389280
 C          1.0859603488        0.0682062186        0.3743085596
 O          2.0230385367       -0.4673085985       -0.1458351591
 H         -1.7820821104       -1.0808383998       -1.1626424024
 H         -1.0660464178       -1.5936209410        0.3637632526
 H         -2.7638459659       -1.1120706654        0.3026891567
 H         -1.3918877044        0.7116485234        1.2848127949
 H         -2.0954184839        1.2191221593       -0.2517690525
 H          0.0798325742        0.6609481484       -1.4058890418
 H          0.2491654126        1.9103655663       -0.1627874752
 H          0.9447858230        0.0294197012        1.4744455944
  13
  -16.6853076000000       6.298275181984915E-002 !mtd7
 C         -1.7729567755       -0.9010877135        0.0953410573
 C         -1.3748189770        0.5400193323       -0.1998874558
 C          0.0232530662        0.8519629070        0.3347678062
 C          1.0846398248        0.0682421520       -0.3782861946
 O          2.0247417389       -0.4665934818        0.1370145385
 H         -1.7784560632       -1.0824106714        1.1677221668
 H         -2.7667795380       -1.1101571610       -0.2932774896
 H         -1.0697419392       -1.5933694040       -0.3627399097
 H         -2.0941057762        1.2192926090        0.2614426391
 H         -1.3964344770        0.7134719260       -1.2783423358
 H          0.2502424986        1.9093117544        0.1657472602
 H          0.0852159597        0.6573284495        1.4067801833
 H          0.9383102234        0.0300835592       -1.4778338062
  13
  -16.6853076000000       6.298275181984915E-002 !mtd2
 C         -1.7715240796       -0.9014589558        0.0953651373
 C         -1.3748000351        0.5400656157       -0.1997900474
 C          0.0231857037        0.8528010387        0.3346236627
 C          1.0845378224        0.0689256063       -0.3784036587
 O          2.0234785352       -0.4676366093        0.1371543825
 H         -2.7651943692       -1.1112952457       -0.2931661136
 H         -1.0678141636       -1.5930451506       -0.3630422181
 H         -1.7766774231       -1.0831269246        1.1677357386
 H         -2.0944885184        1.2186270717        0.2619665516
 H         -1.3968848570        0.7137939744       -1.2781922529
 H          0.2496740879        1.9101381897        0.1650702763
 H          0.0853137355        0.6586167519        1.4067131216
 H          0.9390938248        0.0321409632       -1.4781364994
  13
  -16.6853075900000       6.298208534308955E-002 !mtd11
 C         -1.7726277177       -0.9009438642       -0.0902626123
 C         -1.3741465626        0.5398594136        0.2060935484
 C          0.0219493173        0.8529993398       -0.3328734854
 C          1.0855587211        0.0668132434        0.3741901346
 O          2.0241105235       -0.4661615588       -0.1458397679
 H         -2.7652549746       -1.1110847476        0.3007857723
 H         -1.7810043369       -1.0806901888       -1.1628789457
 H         -1.0678297260       -1.5936255474        0.3647783010
 H         -1.3921157245        0.7115281512        1.2849159821
 H         -2.0952237898        1.2196609465       -0.2516251020
 H          0.0799313172        0.6613131964       -1.4056629189
 H          0.2498877650        1.9098039520       -0.1619423294
 H          0.9425321033        0.0246575318        1.4739837751
  13
  -16.6853075900000       6.298208534308955E-002 !mtd14
 C         -1.7727430101       -0.9010492305       -0.0901317329
 C         -1.3738939770        0.5396160126        0.2063750714
 C          0.0218635285        0.8528685872       -0.3334449775
 C          1.0860679197        0.0679745695        0.3741341014
 O          2.0236058274       -0.4668240048       -0.1456711735
 H         -1.0673187233       -1.5939277117        0.3635935407
 H         -2.7648135534       -1.1113142076        0.3022402656
 H         -1.7826671331       -1.0802546260       -1.1628261899
 H         -1.3910542116        0.7109639783        1.2852539564
 H         -2.0953227181        1.2195607316       -0.2505934055
 H          0.0794798763        0.6600902563       -1.4060492188
 H          0.2493218076        1.9099420712       -0.1635523614
 H          0.9446270134        0.0288934785        1.4741752698
  13
  -16.6851649100000       5.415590878537813E-002 !input
 C         -2.3757798206       -0.2626924263        0.0656325955
 C         -0.8775195955       -0.5200586965       -0.0198799198
 C         -0.0754736657        0.7739799314        0.0815773520
 C          1.4056310011        0.5551379665        0.0023368836
 O          1.9547718830       -0.5015558500       -0.1263910187
 H         -2.9262957030       -1.1968536641       -0.0100714346
 H         -2.6311545788        0.2089795302        1.0123943107
 H         -2.6998131365        0.3915446714       -0.7412291077
 H         -0.6381237867       -1.0110892304       -0.9646029371
 H         -0.5692485576       -1.1908115150        0.7838437901
 H         -0.3523331720        1.4654640882       -0.7200245770
 H         -0.2852600787        1.2870315240        1.0250504247
 H          1.9899979048        1.4964552326        0.0757479665
  13
  -16.6851648800000       5.415418958742535E-002 !gc
 C         -2.3757794709       -0.2625904363        0.0653945348
 C         -0.8775342788       -0.5201831906       -0.0192603640
 C         -0.0754661423        0.7739326703        0.0814344283
 C          1.4055971074        0.5552979591        0.0011580727
 O          1.9548195633       -0.5016495275       -0.1255324631
 H         -2.6994818083        0.3908789115       -0.7422397591
 H         -2.9264071667       -1.1967720392       -0.0095043266
 H         -2.6313822832        0.2100979879        1.0115951468
 H         -0.6378470983       -1.0119773468       -0.9635093639
 H         -0.5697089949       -1.1903907341        0.7851029862
 H         -0.3530959068        1.4654816213       -0.7198251756
 H         -0.2843843748        1.2868643011        1.0251846378
 H          1.9898047113        1.4969497445        0.0718802831
  13
  -16.6851648200000       5.415075135565479E-002 !mtd12
 C         -2.3759041446       -0.2624630243        0.0644869333
 C         -0.8775119140       -0.5204134372       -0.0170439575
 C         -0.0755114930        0.7740176355        0.0799801481
 C          1.4055810050        0.5553999745       -0.0000901924
 O          1.9549745545       -0.5017439984       -0.1241372002
 H         -2.6325635975        0.2161687746        1.0074141648
 H         -2.6988094013        0.3858399188       -0.7476129408
 H         -2.9263472142       -1.1971514803       -0.0051084255
 H         -0.6364767104       -1.0157329087       -0.9591156037
 H         -0.5708489118       -1.1876356795        0.7902376467
 H         -0.3534199424        1.4634010145       -0.7230518406
 H         -0.2842123569        1.2894530805        1.0224193866
 H          1.9896664096        1.4972866018        0.0679626475
  13
  -16.6848483000000       3.873842562266437E-002 !gc
 C         -2.4722713711       -0.3520804539        0.1845550540
 C         -1.1890704272        0.4326685957       -0.0573787487
 C          0.0375083448       -0.4812146579       -0.0323204818
 C          1.2998844681        0.2608543075       -0.3515080710
 O          2.3398368843        0.1547422827        0.2340441278
 H         -3.3317433072        0.3136085153        0.1741648959
 H         -2.6120275398       -1.1055865450       -0.5875022421
 H         -2.4380659384       -0.8523054696        1.1495783599
 H         -1.0809996735        1.1997556327        0.7120673370
 H         -1.2458383919        0.9357898747       -1.0253668393
 H          0.1383833716       -0.9736650132        0.9363133960
 H         -0.0787377885       -1.2551170142       -0.7979421621
 H          1.2006365856        0.9467871278       -1.2180400717
  13
  -16.6848482700000       3.873719585816348E-002 !mtd11
 C         -2.4769917374       -0.2328514412        0.2845228620
 C         -1.1697860085       -0.0727548638       -0.4813669377
 C          0.0142186473        0.1162369550        0.4686633634
 C          1.2960147864        0.3590505241       -0.2690686772
 O          2.3521913913       -0.1493850630       -0.0209104998
 H         -2.4291562963       -1.0945161145        0.9462580159
 H         -2.6795167973        0.6506151438        0.8860587919
 H         -3.3053166152       -0.3760955525       -0.4048838212
 H         -1.2403555011        0.7899223768       -1.1478236882
 H         -0.9980180426       -0.9577147771       -1.0974189188
 H         -0.1658089524        0.9981461672        1.0919678948
 H          0.1294019581       -0.7469851384        1.1263540077
 H          1.1943588836        1.0858994444       -1.1013577351
  13
  -16.6848482600000       3.873678594529010E-002 !mtd3
 C         -2.4771675532       -0.2315891009        0.2841833907
 C         -1.1691959602       -0.0751861274       -0.4811141304
 C          0.0142116392        0.1174347569        0.4689992696
 C          1.2959916952        0.3593355328       -0.2690246297
 O          2.3518495990       -0.1497875855       -0.0211499779
 H         -3.3050940578       -0.3768158674       -0.4053101419
 H         -2.4303823496       -1.0908387656        0.9491228337
 H         -2.6795449551        0.6542490247        0.8822751884
 H         -1.2389949232        0.7846377338       -1.1513113733
 H         -0.9972589615       -0.9628234426       -1.0932239725
 H         -0.1669141634        1.0009085973        1.0897178059
 H          0.1298430037       -0.7439025264        1.1290505330
 H          1.1947829931        1.0865058866       -1.1008599442
  13
  -16.6848482600000       3.873678594529010E-002 !mtd4
 C         -2.4769919903       -0.2335265855        0.2842389295
 C         -1.1694417683       -0.0733958588       -0.4810518546
 C          0.0142604029        0.1184126360        0.4688825286
 C          1.2961744644        0.3591997592       -0.2692585708
 O          2.3516917228       -0.1502866448       -0.0209365453
 H         -2.6802924200        0.6504756114        0.8846368898
 H         -3.3051130417       -0.3781916656       -0.4051100224
 H         -2.4287591244       -1.0942869016        0.9470497161
 H         -1.2406509817        0.7880347543       -1.1490397357
 H         -0.9966438746       -0.9592718566       -1.0954875715
 H         -0.1661946204        1.0019714298        1.0896426422
 H          0.1292941151       -0.7430041405        1.1289226432
 H          1.1953806168        1.0858345767       -1.1017666109
  13
  -16.6848482400000       3.873596613270189E-002 !mtd2
 C         -2.4721603851       -0.3524141222        0.1834010736
 C         -1.1884979176        0.4329674599       -0.0539149402
 C          0.0375219331       -0.4819075182       -0.0360917535
 C          1.2998578483        0.2619656650       -0.3511545434
 O          2.3392147339        0.1543171323        0.2351551239
 H         -2.6126942905       -1.1008925286       -0.5933515456
 H         -2.4379408204       -0.8587347401        1.1452342712
 H         -3.3311862035        0.3139149735        0.1775830382
 H         -1.0792911189        1.1945599395        0.7208455134
 H         -1.2454498705        0.9430054436       -1.0182844252
 H          0.1389008206       -0.9807477258        0.9291872204
 H         -0.0799687860       -1.2505041174       -0.8068537214
 H          1.2011237761        0.9508422850       -1.2155207494
  13
  -16.6848481200000       3.873104762107803E-002 !mtd3
 C         -2.4723891015       -0.3505981620        0.1847525801
 C         -1.1883684379        0.4321615316       -0.0590068123
 C          0.0376827378       -0.4823290559       -0.0287474672
 C          1.3000102458        0.2571659308       -0.3539102101
 O          2.3390806520        0.1581775613        0.2342368678
 H         -2.4399828319       -0.8466178822        1.1520158815
 H         -3.3313004999        0.3157409911        0.1703507177
 H         -2.6118389056       -1.1073880269       -0.5840684619
 H         -1.0806493244        1.2024888087        0.7074349164
 H         -1.2437422447        0.9312113064       -1.0292840394
 H          0.1388954853       -0.9679437067        0.9432355207
 H         -0.0795035342       -1.2614314538       -0.7890218276
 H          1.2011939807        0.9342878050       -1.2273552346
  13
  -16.6846844700000       3.257248640422535E-002 !mtd7
 C         -1.6413774509       -0.9203728910       -0.1579186081
 C         -1.1172167181        0.3386771174        0.5218361007
 C         -0.0510520130        1.0347692280       -0.3217673536
 C          1.2612687125        0.3069423507       -0.3488285818
 O          1.5517811311       -0.6563083049        0.3008414869
 H         -0.8324967637       -1.6294146929       -0.3123504243
 H         -2.4001894821       -1.3954058394        0.4588308732
 H         -2.0840849383       -0.6806960156       -1.1231074762
 H         -0.6816803608        0.0729529033        1.4864239755
 H         -1.9431747981        1.0305090008        0.6993115710
 H         -0.3916452187        1.1624983206       -1.3528498003
 H          0.1578969879        2.0357959930        0.0689765729
 H          1.9942006071        0.7649958282       -1.0461485856
  13
  -16.6846844700000       3.257248640422535E-002 !mtd10
 C         -1.6314790051       -0.9186608877        0.2441812994
 C         -1.1409284276        0.3342014920       -0.4711967007
 C         -0.0359544349        1.0378424151        0.3141614482
 C          1.2764741979        0.3101169423        0.2853051164
 O          1.5355614224       -0.6596914384       -0.3677996207
 H         -0.8159112212       -1.6263836700        0.3659696845
 H         -2.0274596216       -0.6703713583        1.2273258640
 H         -2.4188320894       -1.3991225951       -0.3311958802
 H         -1.9747435313        1.0243815858       -0.6153128115
 H         -0.7518977968        0.0597010695       -1.4530583634
 H          0.1537641326        2.0352947940       -0.0950678446
 H         -0.3269644714        1.1748485513        1.3591200702
 H          2.0418356278        0.7750707722        0.9422215934
  13
  -16.6846844500000       3.257179705072129E-002 !mtd14
 C         -1.6410238995       -0.9204159935       -0.1579078480
 C         -1.1174190672        0.3388807002        0.5217987084
 C         -0.0510614248        1.0347609727       -0.3217407537
 C          1.2612271856        0.3068497603       -0.3488337815
 O          1.5516747433       -0.6563503004        0.3008635814
 H         -2.0830289527       -0.6811530924       -1.1234992751
 H         -0.8320753909       -1.6295304144       -0.3114868001
 H         -2.4002867843       -1.3950844642        0.4585700329
 H         -0.6821622263        0.0734285661        1.4865846746
 H         -1.9435547498        1.0305918850        0.6989244683
 H         -0.3915103102        1.1626662472       -1.3528231603
 H          0.1579556367        2.0357101191        0.0691410635
 H          1.9939827805        0.7645626292       -1.0466126770
  13
  -16.6846844500000       3.257179705072129E-002 !mtd4
 C         -1.6311465053       -0.9187416544        0.2442026979
 C         -1.1411031484        0.3343383636       -0.4711405122
 C         -0.0359959489        1.0378624335        0.3141645747
 C          1.2764782957        0.3103628621        0.2848625102
 O          1.5354209363       -0.6599807583       -0.3674896583
 H         -2.0287549299       -0.6705180684        1.2266851409
 H         -2.4171317200       -1.4003139639       -0.3320895293
 H         -0.8149449710       -1.6254788779        0.3673111797
 H         -1.9750700457        1.0244674748       -0.6147411552
 H         -0.7523519026        0.0601998685       -1.4532309486
 H          0.1533484103        2.0355125730       -0.0947153815
 H         -0.3267287668        1.1743936206        1.3592937315
 H          2.0422206845        0.7759114440        0.9408815547
  13
  -16.6846844500000       3.257179705072129E-002 !mtd3
 C         -1.6317042766       -0.9186460252        0.2441410382
 C         -1.1408312713        0.3341208198       -0.4711888228
 C         -0.0358958250        1.0378778399        0.3141600966
 C          1.2763889390        0.3100089647        0.2854365924
 O          1.5357143711       -0.6595629881       -0.3678841985
 H         -2.4192216129       -1.3989454853       -0.3311217630
 H         -0.8163458768       -1.6265548779        0.3659648550
 H         -2.0275469430       -0.6701563285        1.2272345901
 H         -1.9745075857        1.0244038250       -0.6155742784
 H         -0.7516641214        0.0594261262       -1.4529290952
 H          0.1539746987        2.0352552768       -0.0952434102
 H         -0.3270079877        1.1751236810        1.3590774251
 H          2.0415268565        0.7744767572        0.9427718084
  13
  -16.6846844100000       3.257041838760309E-002 !mtd10
 C         -1.6413389795       -0.9204978254       -0.1577702278
 C         -1.1171827269        0.3386817759        0.5217084087
 C         -0.0510601200        1.0347936722       -0.3219489642
 C          1.2615114341        0.3073369319       -0.3483315019
 O          1.5515030813       -0.6565655204        0.3005530623
 H         -2.3987626379       -1.3966391530        0.4598403961
 H         -2.0858973942       -0.6806430806       -1.1219844078
 H         -0.8321509888       -1.6287119461       -0.3141270872
 H         -0.6816646651        0.0730041021        1.4863099419
 H         -1.9432005393        1.0304220821        0.6992460264
 H         -0.3912647645        1.1616017327       -1.3532478717
 H          0.1574439124        2.0361849501        0.0680380018
 H          1.9950774745        0.7665396929       -1.0444157847
  13
  -16.6842376300000       2.030006673992683E-002 !mtd6
 C         -2.4870341160       -0.3020476435        0.2845303264
 C         -1.2343391499        0.2321565433       -0.3989941612
 C          0.0305164800       -0.2131808194        0.3271953379
 C          1.2969694038        0.2771594997       -0.3124589513
 O          2.4044835806        0.0270086404        0.0719254025
 H         -2.4768138289       -1.3895809448        0.3042142716
 H         -2.5474621266        0.0585176816        1.3090630012
 H         -3.3788165093        0.0223425949       -0.2459505257
 H         -1.2723479791        1.3234894383       -0.4246447849
 H         -1.2041396413       -0.1251575400       -1.4307865743
 H          0.0212356025        0.1404672111        1.3625660599
 H          0.0800814504       -1.3048443345        0.3770088105
 H          1.1371148508        0.9164883193       -1.2047760472
  13
  -16.6828569800000       4.709715325852607E-003 !mtd2
 C         -2.3770115614       -0.3291860412       -0.1005365199
 C         -0.9423172059       -0.3343358944        0.4088674397
 C         -0.0592083845        0.6377663519       -0.3868842352
 C          1.3672233315        0.5368021387        0.0775533000
 O          2.0393991908       -0.4529410313        0.0064705325
 H         -2.4149344496       -0.6380288660       -1.1426435099
 H         -2.9862269395       -1.0147465145        0.4831063287
 H         -2.8091584552        0.6660780152       -0.0212621937
 H         -0.5207427461       -1.3371531119        0.3244309071
 H         -0.9265538980       -0.0510803095        1.4637158328
 H         -0.0965042463        0.3518662244       -1.4410491277
 H         -0.4274025026        1.6581884507       -0.2824270620
 H          1.7766486283        1.4647913454        0.5253326604
  13
  -16.6828566000000       4.707821863918774E-003 !mtd2
 C         -2.3757780707       -0.3302911963       -0.0997804725
 C         -0.9404354469       -0.3361579290        0.4077327002
 C         -0.0600174555        0.6418709707       -0.3834028973
 C          1.3687372736        0.5382731771        0.0732227413
 O          2.0356532059       -0.4554536479        0.0078441246
 H         -2.8093636972        0.6638096205       -0.0140305682
 H         -2.4147483724       -0.6329669652       -1.1436961970
 H         -2.9831296374       -1.0203223174        0.4805470393
 H         -0.5173510646       -1.3378667220        0.3172382561
 H         -0.9237739821       -0.0588045629        1.4641543478
 H         -0.1008082507        0.3639825179       -1.4396757455
 H         -0.4278241233        1.6615881491       -0.2708585855
 H          1.7860644336        1.4688193697        0.5083537573
  13
  -16.6820840800000       2.078712419286801E-003 !mtd13
 C         -1.5436228178       -0.9900884444       -0.0785900718
 C         -1.2259446728        0.4317190006        0.3635523426
 C         -0.0254358693        1.0307372147       -0.3865794422
 C          1.2808608000        0.4107073378        0.0287767549
 O          1.5184124102       -0.7631276712        0.0746961042
 H         -1.8089647582       -1.0112144969       -1.1336721417
 H         -0.6832541228       -1.6349058308        0.0746801854
 H         -2.3795958630       -1.3840114342        0.4947413060
 H         -1.0168663796        0.4448002652        1.4356194816
 H         -2.0930858662        1.0722430497        0.1863854917
 H         -0.1553640898        0.8461576233       -1.4566838245
 H          0.0164246291        2.1084062469       -0.2259279959
 H          2.0612548885        1.1489301044        0.3071606945
