! pbe def2-sv(p) def2/J RI DEFGRID1 loosescf d4 GCP(DFT/SV(P)) printgap
%output
    printlevel normal
end
* xyz 0 1
C -1.1030626394 -0.4596938921 -0.3134716506
C -0.0007709092 0.1849502152 0.5430229829
C 1.2787170384 -0.6754218657 0.5650881783
O 1.9741103743 -0.6954170109 -0.6568320809
O 0.2393523723 1.4768161597 0.0309415598
O -2.3741154258 0.1033731714 -0.1083675255
H -1.1300171742 -1.539638898 -0.1138366822
H -0.8842092347 -0.2846372728 -1.3685551192
H -0.3644778399 0.2571980736 1.5828323613
H 1.0189614203 -1.6917463909 0.8885895394
H 1.9848762325 -0.2544063216 1.2855466657
H 1.4182263283 -1.0797699308 -1.3469184026
H 1.0383623293 1.8448316533 0.4329701571
H -2.615555913 0.0261408147 0.8254984988
*
