! r2scan-3c def2/J RI DEFGRID2 scfconv6 printgap
%output
    printlevel normal
end
%cpcm
    smd true
    smdsolvent "water"
end
* xyz 0 1
C 2.7784941557 -0.0862973603 -0.2465987968
C 1.365551151 -0.1204619741 -0.8187794873
C 0.3111372243 -0.2003609632 0.2939888683
H 0.5997096983 -0.9987201448 0.9892386333
C -1.0990924611 -0.5331780648 -0.2458496161
C -2.0397461788 -0.8248021948 0.9227794994
C -1.6767637842 0.5818790629 -1.1171713592
O 0.3173572254 0.968095505 1.0916780478
H 3.507781029 0.0699077516 -1.0372388352
H 3.0068650377 -1.0228270728 0.2568847179
H 2.8683588616 0.7195009082 0.4782610579
H 1.1966860316 0.7814970405 -1.4105925501
H 1.2530985523 -0.9840660538 -1.4753787566
H -1.0020358296 -1.4385982533 -0.8539329951
H -3.0478672995 -1.0154001581 0.5638340025
H -1.6992452324 -1.6940317913 1.4805023542
H -2.0629364864 0.0262465249 1.5999806707
H -1.8385884811 1.4827644088 -0.5296419544
H -2.6376519512 0.2694926545 -1.5186368772
H -1.0207397218 0.8112619474 -1.9525859531
H 0.1339109107 1.7257097573 0.5188460062
*
