! pbe def2-sv(p) def2/J RI DEFGRID1 loosescf d4 GCP(DFT/SV(P)) printgap
%output
    printlevel normal
end
* xyz 0 1
C -0.402754899 -2.3840754814 0.7650708946
C 0.0785448677 -1.3220719316 -0.2084959237
O 1.0714916562 -0.5576335088 0.4539030993
C 1.6291901724 0.4917184478 -0.1663097114
O 1.323753065 0.8336468702 -1.286834322
C 2.6573236272 1.1468148665 0.6969412034
O -0.9943856144 -0.5304564543 -0.7057739532
C -1.5443931298 0.4469447159 0.0291826087
O -1.1988207371 0.7226796403 1.1549021609
C -2.6140580142 1.1463001669 -0.7474969039
H -0.8172524716 -1.8991835717 1.6452156282
H 0.4387296395 -3.0017055874 1.0591327249
H -1.1623005798 -2.9920382108 0.2847661002
H 0.5067731628 -1.7565027839 -1.122888297
H 2.5062801488 2.2224736356 0.6796848155
H 2.5896884169 0.7613384267 1.7080085899
H 3.6407945339 0.9381754193 0.2814864592
H -2.1363032706 1.7449602092 -1.5202950276
H -3.2513628188 0.4141755643 -1.2334490335
H -3.1847427258 1.7885121117 -0.0852097995
*
