  27
        -28.42848819
 C         -4.5504282227        0.8125407183       -0.0831697809
 C         -3.4662067677       -0.2064249936        0.2454432331
 C         -2.0806666546        0.2840184590       -0.1677923454
 C         -0.9887267467       -0.7320481386        0.1573399581
 C          0.3955413243       -0.2376486567       -0.2543788625
 C          1.4867786382       -1.2561019036        0.0647404026
 C          2.8762592984       -0.7503178515       -0.3362557875
 C          3.2810289651        0.4471864176        0.4619098518
 C          3.6089658987        1.6178738885       -0.0507419146
 H         -5.5282074505        0.4436603060        0.2181091818
 H         -4.5735943208        1.0131216112       -1.1522072643
 H         -4.3622660913        1.7500441082        0.4357414090
 H         -3.4715062685       -0.4083039472        1.3191301211
 H         -3.6837274225       -1.1460025280       -0.2679306729
 H         -2.0762515283        0.4870811378       -1.2414483867
 H         -1.8628822732        1.2235600042        0.3457752554
 H         -1.2051859481       -1.6716390123       -0.3574003851
 H         -0.9947282345       -0.9365256904        1.2308597939
 H          0.4005845887       -0.0295800618       -1.3270538790
 H          0.6168064615        0.6987057090        0.2629387086
 H          1.2777526815       -2.1884278659       -0.4651593983
 H          1.4771278482       -1.4735762269        1.1355305691
 H          2.8859518057       -0.5075927747       -1.4006317632
 H          3.6033021038       -1.5499167468       -0.1633272861
 H          3.2886968443        0.3015420245        1.5350940901
 H          3.8969190119        2.4533282880        0.5648785801
 H          3.6074312327        1.7898468655       -1.1149515558
