  21
  -28.6439423300000       0.333345091145588      !mtd11
 C         -1.8566337489       -2.1733337900       -0.0000539886
 C         -1.3900093788       -0.7482912993       -0.0000219028
 C         -2.3019487474        0.2756925743        0.0002039410
 C         -1.8993601632        1.6187660963        0.0001160241
 C         -0.5723676483        1.9374639376       -0.0001354835
 C          0.4050857760        0.9206343578       -0.0001654356
 C         -0.0020578014       -0.4408710421       -0.0001558603
 C          0.9995550878       -1.4358810613       -0.0001132327
 C          2.3259668081       -1.1043963387        0.0001318600
 C          2.7236885621        0.2401865128        0.0001850124
 C          1.7815264800        1.2290476964       -0.0000615705
 H         -1.4915396267       -2.6986789549        0.8818720473
 H         -2.9431411223       -2.2160447636        0.0008854947
 H         -1.4928913609       -2.6981695454       -0.8828171989
 H         -3.3590912297        0.0490567921        0.0004326708
 H         -2.6506666964        2.3951493783        0.0003385221
 H         -0.2500154238        2.9689578926       -0.0002339350
 H          0.7130234461       -2.4761708478       -0.0001308040
 H          3.0786003489       -1.8797661733        0.0003214777
 H          3.7759828351        0.4847737361        0.0003344829
 H          2.0761426317        2.2692048978       -0.0001609919
  21
  -28.6439422900000       0.333330981680799      !md2
 C         -1.8567151706       -2.1733056944       -0.0006918152
 C         -1.3899862100       -0.7483006029       -0.0000783026
 C         -2.3019516598        0.2756927059        0.0003243235
 C         -1.8993719706        1.6187400251        0.0004310402
 C         -0.5723492739        1.9374420976       -0.0000372681
 C          0.4050824504        0.9206272224       -0.0002534470
 C         -0.0020609622       -0.4408848492        0.0000280688
 C          0.9995842950       -1.4359068105        0.0005825410
 C          2.3259715552       -1.1043960128        0.0004961779
 C          2.7237008077        0.2402342278       -0.0002252803
 C          1.7815525009        1.2290680769       -0.0004638761
 H         -1.4907794123       -2.6984566653       -0.8823149533
 H         -1.4937124294       -2.6984011598        0.8822576300
 H         -2.9432159284       -2.2159608152       -0.0026395838
 H         -3.3590894226        0.0489887644        0.0003930052
 H         -2.6506292600        2.3951719683        0.0007709351
 H         -0.2500649704        2.9689526288       -0.0003028465
 H          0.7129953698       -2.4761865297        0.0009374053
 H          3.0786808170       -1.8796977741        0.0010436759
 H          3.7760176566        0.4847459582       -0.0004332443
 H          2.0760686730        2.2692425271       -0.0010486441
  21
  -28.6439422700000       0.333323927173613      !md2
 C         -1.8567217182       -2.1733329576        0.0001655058
 C         -1.3899836007       -0.7483107891        0.0001527850
 C         -2.3019175663        0.2757027243       -0.0003744688
 C         -1.8993520132        1.6187624384       -0.0003664008
 C         -0.5723624688        1.9374716655        0.0002628110
 C          0.4050637061        0.9206164276        0.0003442657
 C         -0.0020396735       -0.4408962640        0.0002531909
 C          0.9995843767       -1.4358867597        0.0000420875
 C          2.3259905134       -1.1043708803       -0.0003100678
 C          2.7236938152        0.2402002984       -0.0002483747
 C          1.7815146071        1.2290501328        0.0002089230
 H         -2.9432092743       -2.2158835495        0.0023316646
 H         -1.4941742604       -2.6979078582       -0.8832936331
 H         -1.4905601043       -2.6990874586        0.8813738156
 H         -3.3590467280        0.0489788325       -0.0011389663
 H         -2.6506950820        2.3951256266       -0.0006939700
 H         -0.2499574909        2.9689461145        0.0007124255
 H          0.7130906104       -2.4761872056        0.0002757651
 H          3.0786575436       -1.8797115678       -0.0005681567
 H          3.7759548316        0.4849486000       -0.0008030118
 H          2.0760487922        2.2692292027        0.0002518165
