! r2scan-3c def2/J RI DEFGRID2 scfconv6 printgap
%output
    printlevel normal
end
* xyz 0 1
C -1.3626985447 -0.3519719199 -0.431615951
C -0.0017865554 -0.0581547068 0.2113582576
C 1.1406292362 -0.768736246 -0.5244984661
O 2.3725037251 -0.5954386095 0.1340120726
O 0.2328729214 1.3361407338 0.2677935685
O -2.4224874903 0.1988024 0.3132175124
H -1.5380552821 -1.427902526 -0.4685474649
H -1.37597393 0.0440958748 -1.4581917355
H -0.0168374188 -0.3838823502 1.2566872779
H 1.206104034 -0.387833066 -1.5547630498
H 0.957082954 -1.8433228694 -0.558784226
H 2.4550829468 0.3377155344 0.3850890544
H 0.2620059238 1.6887448659 -0.6348974291
H -2.1849826041 1.1067555987 0.5581872589
*
