! r2scan-3c def2/J RI DEFGRID2 scfconv6 printgap
%output
    printlevel normal
end
* xyz 0 1
C -1.9342094693 -0.8206518621 0.7407261562
C -1.2125340059 -0.1938962259 -0.4507033569
C -2.1818420387 0.691512382 -1.2333176158
C -1.18943e-05 0.6306902657 4.49043e-05
C 1.2125238435 -0.1940136046 0.4505504821
C 1.9344395376 -0.8200809259 -0.7410948592
C 2.1816335509 0.6910707948 1.2337751553
H -2.7805615783 -1.4137835836 0.4017339225
H -1.2705770712 -1.4702023726 1.3053242542
H -2.304567328 -0.0445373457 1.4074745907
H -0.8732479013 -0.9968587193 -1.1130128912
H -1.7015127376 1.0979025351 -2.120420331
H -3.0528500849 0.1204913089 -1.5466275522
H -2.5192979083 1.5204596231 -0.6146379505
H -0.3150057942 1.2778993637 0.8223119336
H 0.3149687615 1.2781450387 -0.8220333423
H 0.873216394 -0.9973531945 1.1123892298
H 2.3051665314 -0.0435760233 -1.4071845179
H 2.7805650007 -1.4136280741 -0.4022616552
H 1.2708376016 -1.4690905774 -1.3063485474
H 2.5189552028 1.5204869631 0.6156512416
H 1.7011790864 1.0967852877 2.1211181436
H 3.0527375006 0.12001204 1.5467514883
*
