! pbe def2-sv(p) def2/J RI DEFGRID1 loosescf d4 GCP(DFT/SV(P)) printgap
%output
    printlevel normal
end
* xyz 0 1
C -0.1841159515 2.8081817539 0.0331130957
N -0.3409353732 1.3771040397 0.2399795408
C -1.4069373861 0.843863928 -0.5824849524
C -1.804852648 -0.5626113309 -0.174982999
F -0.9260374648 -1.5100387367 -0.5473692769
F -1.9920444234 -0.7146789589 1.1421066058
F -2.9733906171 -0.9148173464 -0.756866224
C 0.8846420489 0.6378205831 0.1597675302
C 1.1535916196 -0.2868148806 1.1611521817
C 2.326474642 -1.0195951163 1.133837715
C 3.2430075148 -0.828534759 0.1134124521
C 2.9819760021 0.0976951731 -0.8815440926
C 1.8070006866 0.8279011178 -0.8625096727
H 0.6777540866 3.142047864 0.6042306724
H -1.073717408 3.3081946782 0.4130576016
H -0.0476452531 3.084567063 -1.0192725931
H -2.2940873655 1.4692927225 -0.4478115206
H -1.1608914698 0.7965908419 -1.6587606959
H 0.4371358711 -0.4241431083 1.9561744138
H 2.5263544781 -1.7380452343 1.9140526892
H 4.1589433358 -1.3988700673 0.094639077
H 3.6936175268 0.2508004983 -1.6788598176
H 1.6106478598 1.5451682617 -1.6452187558
*
