! r2scan-3c def2/J RI DEFGRID2 scfconv6 printgap
%output
    printlevel normal
end
* xyz 0 1
C 2.2713216729 -1.1121021334 0.4815525735
C 1.4989014558 -0.2525171264 -0.5117126267
C 0.2907871265 0.4711577467 0.1086765629
H 0.3780584852 0.4363272503 1.2066201703
C -1.0615457233 -0.1547473334 -0.2928864555
C -1.1562555668 -1.6046684913 0.1759200684
C -2.2321283362 0.6437998012 0.2854085418
O 0.3830470999 1.8253543473 -0.3148273316
H 3.115647178 -1.5835327305 -0.015121733
H 1.6397783092 -1.8904374039 0.9008606145
H 2.6512954664 -0.5007090671 1.2966205271
H 2.1589704354 0.5246042328 -0.902602114
H 1.172709184 -0.8573937532 -1.3586086616
H -1.1257913272 -0.1237850329 -1.386413979
H -0.3907558213 -2.2218143048 -0.2840064606
H -1.0456789826 -1.6577701917 1.2569210885
H -2.1270136219 -2.0160000196 -0.0900081405
H -2.2805926928 1.6420435141 -0.1424195407
H -2.1412468875 0.7221331849 1.3673423992
H -3.1689724858 0.1412106547 0.0579409098
H -0.2821986906 2.3513464547 0.1474714991
*
