  17
        -28.16727506
 C          3.2822085814        0.8504749459       -0.3663091095
 C          2.1320825778        0.2765444518        0.4507206838
 C          1.3044249181       -0.7122605626       -0.3681013531
 C          0.1256575920       -1.2680371358        0.4275353640
 O         -0.7713496821       -0.2506702464        0.8500904769
 N         -1.6717082104        0.2218406023       -0.0946591931
 O         -1.6520569988       -0.2886862927       -1.1658727868
 O         -2.3618072034        1.0908700776        0.3117166899
 H          2.9059052952        1.3776072991       -1.2400918853
 H          3.8614683699        1.5488903653        0.2319433006
 H          3.9438860286        0.0562010387       -0.7046924430
 H          2.5275849457       -0.2305712657        1.3334447177
 H          1.4893432561        1.0884647990        0.7965520635
 H          0.9333609992       -0.2262528278       -1.2727427072
 H          1.9263722302       -1.5541140568       -0.6755682152
 H         -0.4217637453       -2.0091595943       -0.1646580574
 H          0.4624707269       -1.7202936582        1.3616343183
