  17
        -28.16727506
 C          3.2822085814        0.8504749459       -0.3663091095
 C          2.1320825778        0.2765444518        0.4507206838
 C          1.3044249181       -0.7122605626       -0.3681013531
 C          0.1256575920       -1.2680371358        0.4275353640
 O         -0.7713496821       -0.2506702464        0.8500904769
 N         -1.6717082104        0.2218406023       -0.0946591931
 O         -1.6520569988       -0.2886862927       -1.1658727868
 O         -2.3618072034        1.0908700776        0.3117166899
 H          2.9059052952        1.3776072991       -1.2400918853
 H          3.8614683699        1.5488903653        0.2319433006
 H          3.9438860286        0.0562010387       -0.7046924430
 H          2.5275849457       -0.2305712657        1.3334447177
 H          1.4893432561        1.0884647990        0.7965520635
 H          0.9333609992       -0.2262528278       -1.2727427072
 H          1.9263722302       -1.5541140568       -0.6755682152
 H         -0.4217637453       -2.0091595943       -0.1646580574
 H          0.4624707269       -1.7202936582        1.3616343183
  17
        -28.16707762
 C          3.6063525380        0.9519639575        0.0968900224
 C          2.6336208878       -0.1787623174       -0.2137234601
 C          1.2320508483        0.1367747718        0.3017527090
 C          0.2612292733       -0.9974533791       -0.0169816057
 O         -1.0155167385       -0.7972525056        0.5716618901
 N         -1.8786701211        0.0716549770       -0.0835892897
 O         -2.9110453903        0.2130617758        0.4731506008
 O         -1.4954019591        0.5521794622       -1.0985583544
 H          3.6733494422        1.1144011058        1.1701055103
 H          4.5986278552        0.7130128840       -0.2768081978
 H          3.2770979958        1.8770451505       -0.3701501447
 H          2.5926964826       -0.3373252107       -1.2931985418
 H          2.9897479827       -1.1030647864        0.2461538582
 H          1.2584849684        0.2836652152        1.3833589715
 H          0.8759797810        1.0592659623       -0.1612363519
 H          0.1492495134       -1.1135889258       -1.1004290387
 H          0.6046416152       -1.9385972656        0.4157096094
  17
        -28.16674867
 C          3.1091911481        0.9057905174       -0.4412068439
 C          2.6748817052       -0.0440034037        0.6691806105
 C          1.1584763745       -0.1051048596        0.8440570853
 C          0.4606093095       -0.6999789948       -0.3778933403
 O         -0.9013253333       -1.0084639113       -0.1151900416
 N         -1.7993880915        0.0492706427       -0.1498380067
 O         -2.9087778883       -0.2699481180        0.1024920022
 O         -1.3656479702        1.1187937821       -0.4265378366
 H          2.8064167743        0.5356882035       -1.4170819155
 H          2.6704814423        1.8895782714       -0.2931408493
 H          4.1912983215        1.0102947888       -0.4419286242
 H          3.0578798155       -1.0462051373        0.4652982267
 H          3.1103269188        0.2909074740        1.6124102826
 H          0.9178948214       -0.7275302570        1.7087441929
 H          0.7736294803        0.9002365858        1.0263214811
 H          0.5159105262       -0.0173643721       -1.2311464981
 H          0.8995745444       -1.6622607555       -0.6466994039
  17
        -28.16665600
 C          3.1943126057        0.8655099087       -0.2699782287
 C          1.7518299173        0.5093169272        0.0656514038
 C          1.4915544572       -0.9851447512       -0.1197926163
 C          0.0951366950       -1.4031953381        0.3353818082
 O         -0.9148190170       -0.8085837056       -0.4670292456
 N         -1.5815618306        0.3029400581        0.0350571470
 O         -1.3246141747        0.6473089695        1.1405639281
 O         -2.3513482296        0.7625180732       -0.7344733818
 H          3.3597749304        1.9324539705       -0.1453857358
 H          3.8814575919        0.3323835378        0.3831077245
 H          3.4235111717        0.6001964781       -1.2995381026
 H          1.5364362096        0.7918426828        1.0985826978
 H          1.0861836308        1.0812848939       -0.5849991571
 H          1.6145275647       -1.2505814943       -1.1711389026
 H          2.2134174983       -1.5585234520        0.4638948629
 H         -0.0442296621       -2.4803226019        0.2197114566
 H         -0.0690498720       -1.1249077151        1.3817076057
  17
        -28.16662469
 C          3.1828079733        0.3256230561        0.6266043190
 C          2.0993885706        0.6280029295       -0.4017345326
 C          1.2558199456       -0.5970634825       -0.7582236421
 C          0.3334645742       -1.0349934901        0.3783644058
 O         -0.5725847221       -0.0113662542        0.7653053606
 N         -1.6923896600        0.1687416684       -0.0321859187
 O         -1.8307306374       -0.5717859261       -0.9496163981
 O         -2.3829592387        1.0587711705        0.3258768370
 H          3.8195971263       -0.4868905438        0.2831339682
 H          3.8036999808        1.2040638916        0.7828858646
 H          2.7509383992        0.0468890213        1.5841946668
 H          1.4480202050        1.4169099042       -0.0207488760
 H          2.5697386016        0.9975628371       -1.3148692459
 H          0.6482900593       -0.3798715817       -1.6391034062
 H          1.9057773119       -1.4384563148       -1.0021255969
 H         -0.2314969572       -1.9262610971        0.0850999922
 H          0.8952745450       -1.2441433739        1.2885898173
  17
        -28.16661875
 C          2.2088560972        0.5540038829       -0.9577625801
 C          2.4439462952        0.0296109466        0.4541526366
 C          1.1772919450       -0.0006526682        1.3102182942
 C          0.1619872785       -1.0563585883        0.8734894482
 O         -0.4550313905       -0.7746730186       -0.3742171021
 N         -1.4684578828        0.1706770906       -0.3733989677
 O         -1.9094514214        0.3838344943       -1.4494256380
 O         -1.7735844583        0.6391350682        0.6739395115
 H          3.1530721703        0.6218198982       -1.4925889593
 H          1.5495033638       -0.1050723802       -1.5156105102
 H          1.7641468719        1.5468299273       -0.9272379035
 H          2.8674376338       -0.9758515643        0.4042015233
 H          3.1733195757        0.6710143671        0.9534949058
 H          1.4474563580       -0.2304537380        2.3422018751
 H          0.7023660971        0.9822562152        1.3052470246
 H          0.6472171383       -2.0201884938        0.7112511549
 H         -0.6166035208       -1.1622999034        1.6370332455
  17
        -28.16661787
 C          3.1603157697        0.5075066763        0.4393986511
 C          2.1026067798        0.2751094460       -0.6328857221
 C          1.2287034057       -0.9492721764       -0.3561135402
 C          0.2948522512       -0.7572524415        0.8380378486
 O         -0.5632924348        0.3639517441        0.6813300678
 N         -1.6717201049        0.1957254003       -0.1345067190
 O         -2.3185834302        1.1780419359       -0.2524157309
 O         -1.8443435844       -0.8822654434       -0.6005904967
 H          3.7750748695       -0.3806632488        0.5692507926
 H          3.8072838756        1.3322107405        0.1513660249
 H          2.7049965991        0.7576646125        1.3939803145
 H          1.4695598091        1.1607900139       -0.7142587556
 H          2.5971442683        0.1311490313       -1.5953314550
 H          0.6280475470       -1.1766081842       -1.2391399637
 H          1.8573519906       -1.8164231643       -0.1492328391
 H         -0.3097876731       -1.6572531648        0.9932644158
 H          0.8525766692       -0.5332835170        1.7472511363
  17
        -28.16654802
 C          3.5212219988        0.2710764558        0.3437536236
 C          2.5660693307       -0.4141456137       -0.6266771191
 C          1.1829564515       -0.6755025688       -0.0320872406
 C          0.4188842055        0.6185075725        0.2413102587
 O         -0.8562473388        0.3728818975        0.8174293899
 N         -1.8790694490        0.0113922875       -0.0487775923
 O         -1.6198480078       -0.0303889299       -1.2062045430
 O         -2.9023652565       -0.2053014419        0.5009351188
 H          3.5886556105       -0.2905439285        1.2725846570
 H          4.5155401449        0.3300205866       -0.0917804693
 H          3.1953774202        1.2821383818        0.5731489858
 H          2.4612404275        0.1923295707       -1.5284291952
 H          2.9929024982       -1.3741056122       -0.9226226230
 H          0.6063751841       -1.2810589399       -0.7345784193
 H          1.2782022747       -1.2323472765        0.9020589060
 H          0.9249804950        1.2290536048        0.9891023473
 H          0.2973672122        1.1925541991       -0.6837749123
  17
        -28.16641750
 C          2.2230160238        1.1380691905       -0.5942859375
 C          1.9013129605        0.3853281504        0.6920937554
 C          1.5877896355       -1.0954270182        0.4702280332
 C          0.3139782631       -1.3463168445       -0.3360244718
 O         -0.8333842403       -0.8864032268        0.3638417438
 N         -1.4482841086        0.2797978611       -0.0715880148
 O         -2.3335645336        0.6231534195        0.6320079786
 O         -1.0441392531        0.7782393718       -1.0700436230
 H          2.5637492419        2.1432792434       -0.3593747421
 H          3.0109736259        0.6297604673       -1.1458780988
 H          1.3493180972        1.2260533719       -1.2349857452
 H          2.7601657256        0.4460636561        1.3636031114
 H          1.0627802224        0.8665081028        1.2011503432
 H          2.4130084169       -1.5692754863       -0.0634233542
 H          1.4791683652       -1.5864583084        1.4387662669
 H          0.3618110525       -0.8568378227       -1.3127429743
 H          0.1603638220       -2.4185581161       -0.4793550464
  17
        -28.16610462
 C          3.7022208913        0.5916478037        0.2827636412
 C          2.2769641278        0.4704587534       -0.2403099432
 C          1.6086469123       -0.8115458724        0.2521598272
 C          0.1802795504       -0.9445558190       -0.2574201552
 O         -0.5933476259        0.0815859236        0.3512321626
 N         -1.9187104376        0.1611902876       -0.0365152671
 O         -2.2905581370       -0.6341498492       -0.8364224658
 O         -2.5161508633        1.0320614831        0.4944726211
 H          4.3050575698       -0.2504468330       -0.0501883770
 H          4.1626106559        1.5074943106       -0.0784697464
 H          3.7095487340        0.6099784545        1.3699536971
 H          1.6905654481        1.3271946899        0.0944314237
 H          2.2888146339        0.4749922528       -1.3325669482
 H          2.1719369052       -1.6811719000       -0.0895484579
 H          1.5917983924       -0.8191834233        1.3426513737
 H          0.1382214799       -0.8310421618       -1.3466645449
 H         -0.2453972917       -1.9191643965        0.0072755841
  17
        -28.16590880
 C          4.0509776936        0.1947738065        0.2618366375
 C          2.7598785675       -0.3530206298       -0.3334123761
 C          1.5347448172        0.2880141741        0.3135067427
 C          0.2445864745       -0.2640133153       -0.2760748390
 O         -0.8376894528        0.3825277173        0.3793428961
 N         -2.1098122372        0.0045604938       -0.0206270633
 O         -2.1783093287       -0.8220326704       -0.8702792306
 O         -2.9741653712        0.5707324054        0.5525711954
 H          4.9134774464       -0.2679162628       -0.2107046729
 H          4.1134431075        1.2701268982        0.1135901343
 H          4.0945804840       -0.0068126634        1.3294249191
 H          2.7443033479       -0.1615032889       -1.4082321525
 H          2.7222447635       -1.4345850069       -0.1885102423
 H          1.5383729421        0.0997440290        1.3878487009
 H          1.5553648749        1.3681628049        0.1635441634
 H          0.1871686830       -0.0676318173       -1.3529169058
 H          0.1707275637       -1.3462755235       -0.1188957196
  17
        -28.16548602
 C          3.3671021309        0.4589399300       -0.6895522910
 C          2.8535638046       -0.5701978241        0.3109556632
 C          1.5104459478       -0.1880470405        0.9312916552
 C          0.3820360924       -0.1766481636       -0.0917288389
 O         -0.8307202303        0.0315036016        0.6205726900
 N         -1.9830668118        0.1079670670       -0.1438800816
 O         -1.8528334969       -0.0087031277       -1.3186068104
 O         -2.9635560756        0.2828628760        0.4922473413
 H          4.3686236202        0.1926281659       -1.0178961618
 H          2.7281232967        0.5084082374       -1.5671195145
 H          3.4087967156        1.4454982295       -0.2339493539
 H          2.7635789434       -1.5417614381       -0.1790093018
 H          3.5809177670       -0.6729575124        1.1181731541
 H          1.2500966107       -0.9048029491        1.7114373653
 H          1.5790321273        0.7979068238        1.3924619264
 H          0.5094393775        0.6265354171       -0.8245165677
 H          0.3288735884       -1.1320977508       -0.6267020509
  17
        -28.16544472
 C          3.9791040828        0.4361711593       -0.0173032164
 C          2.7370784170       -0.4187857279       -0.2357753899
 C          1.4874320286        0.2663427613        0.3113142868
 C          0.2465838358       -0.5905389923        0.0902810324
 O         -0.8812580291        0.0806169180        0.6349949145
 N         -2.0701984499        0.0644343099       -0.0844551050
 O         -2.0848338778       -0.5406434935       -1.1047966054
 O         -2.9333332815        0.6770554308        0.4397094424
 H          4.1345409075        0.6192322127        1.0431882080
 H          4.8592907594       -0.0644395020       -0.4123226361
 H          3.8755825840        1.3954156803       -0.5188545772
 H          2.6083519408       -0.6080235155       -1.3034999569
 H          2.8670920580       -1.3833125268        0.2591732092
 H          1.6008594442        0.4519252021        1.3801370102
 H          1.3465553502        1.2293169152       -0.1825891515
 H          0.0798625021       -0.7663925208       -0.9779760700
 H          0.3448794692       -1.5580547184        0.5942411380
  17
        -28.16532457
 C          2.9807587822        0.7216727300       -0.6274430258
 C          2.3522568949        0.2768968264        0.6880843956
 C          1.5906342161       -1.0445687360        0.5741478681
 C          0.3026518208       -0.9225326314       -0.2298344840
 O         -0.5840728293       -0.0843259441        0.5008336348
 N         -1.7756359845        0.2372229882       -0.1213964439
 O         -1.9550649282       -0.2196529971       -1.2032272756
 O         -2.4725213009        0.9414531125        0.5237990876
 H          2.2250253175        0.9399460869       -1.3776651526
 H          3.5677738672        1.6235702860       -0.4738199418
 H          3.6385823805       -0.0523016362       -1.0172201429
 H          3.1418887728        0.1517703375        1.4310677699
 H          1.6722563208        1.0473690503        1.0538380768
 H          2.2180779472       -1.7960940665        0.0928619431
 H          1.3326344017       -1.3987363460        1.5729170822
 H          0.4848257358       -0.4856647082       -1.2167252378
 H         -0.1649534272       -1.9039337175       -0.3689971135
  17
        -28.16508410
 C          3.2266105276        0.2780759251       -0.9004717108
 C          2.8705516684       -0.3088725813        0.4607852067
 C          1.4727607073        0.0834007125        0.9371045348
 C          0.3757829887       -0.5232310061        0.0684728106
 O         -0.8837357170       -0.2315966603        0.6597306040
 N         -1.9342544867        0.1303534000       -0.1733304025
 O         -1.7277065156        0.1432734611       -1.3417874759
 O         -2.9250831650        0.3835509988        0.4179762344
 H          3.1053980114        1.3587701728       -0.8926786283
 H          4.2618654512        0.0534333947       -1.1445041409
 H          2.5992571992       -0.1351149447       -1.6857336423
 H          2.9474452656       -1.3972762121        0.4209605641
 H          3.5915273924        0.0466332290        1.1990591045
 H          1.3235548293       -0.2627940075        1.9608975866
 H          1.3708668136        1.1699404633        0.9321699811
 H          0.3963138151       -0.1111698631       -0.9448512999
 H          0.4828795613       -1.6119830335        0.0118129351
  17
        -28.16493169
 C          3.4818661851       -0.7847944301       -0.0832975740
 C          2.7856456140        0.5649625211       -0.2139328104
 C          1.4613104889        0.6361586747        0.5451913685
 C          0.4070017947       -0.2976890239       -0.0401865665
 O         -0.8207215794       -0.0912669130        0.6469131667
 N         -1.9896500665       -0.0077586298       -0.0980230870
 O         -1.9029495151       -0.1461043425       -1.2733068311
 O         -2.9450107883        0.1956052243        0.5664600329
 H          3.6053520431       -1.0498513135        0.9640885341
 H          2.9150078075       -1.5703967888       -0.5756070835
 H          4.4661537779       -0.7427345605       -0.5429462452
 H          3.4430655145        1.3413880071        0.1815163702
 H          2.6113366722        0.7849417033       -1.2691854617
 H          1.6174055503        0.3795171032        1.5936531247
 H          1.0748884100        1.6563432672        0.5046691939
 H          0.2605710538       -0.0952768164       -1.1067560312
 H          0.6873953248       -1.3469047825        0.0881542505
  17
        -28.16486842
 C          2.3884080136        1.1949269938        0.4460163972
 C          2.6438039608       -0.3039803242        0.3547623517
 C          1.6831914961       -1.0226257157       -0.5928208223
 C          0.2461398572       -1.0776583529       -0.0863629982
 O         -0.3756976677        0.1752319348       -0.3409940121
 N         -1.7151605372        0.2714879738       -0.0129487110
 O         -2.2225852143       -0.6952969666        0.4557376187
 O         -2.1856172154        1.3308493066       -0.2471086926
 H          1.4011483132        1.4013191225        0.8477413491
 H          3.1263406172        1.6624547604        1.0935203887
 H          2.4550445072        1.6515150939       -0.5383013143
 H          3.6614017289       -0.4691239990       -0.0053689707
 H          2.5702028616       -0.7514465661        1.3486309571
 H          1.6854243212       -0.5273141961       -1.5644441336
 H          2.0199190672       -2.0511634825       -0.7311127742
 H         -0.3174900632       -1.8603155159       -0.6073669572
 H          0.2133409266       -1.2876555779        0.9887820008
  17
        -28.16464366
 C          1.8554051331        1.2487877922       -0.1718148945
 C          2.4472914316       -0.0839385636        0.2744638032
 C          1.6284931491       -1.2970674628       -0.1689202353
 C          0.1973812823       -1.3128804775        0.3673587138
 O         -0.6643452506       -0.6193105389       -0.5269770916
 N         -1.4802601976        0.3845948857       -0.0327890636
 O         -1.4390546433        0.6073532296        1.1329629098
 O         -2.1337358230        0.9009996464       -0.8711631777
 H          1.5932537625        1.2196438334       -1.2271718831
 H          0.9690792256        1.5002840003        0.4050138433
 H          2.5778855651        2.0471231303       -0.0211653097
 H          3.4494808312       -0.1875678180       -0.1461455811
 H          2.5437010685       -0.0914547084        1.3624810722
 H          1.5768400895       -1.3310184663       -1.2583561032
 H          2.1277511598       -2.2042323671        0.1736619607
 H         -0.1794329195       -2.3382929579        0.4308935656
 H          0.1394603313       -0.8507863896        1.3578641539
  17
        -28.16461639
 C          1.9781473931        1.3161427706       -0.0070144428
 C          1.9935001734       -0.0886913764       -0.6029411856
 C          1.6002884283       -1.1697259492        0.4120451974
 C          0.1018760965       -1.4681392289        0.4394077553
 O         -0.6654342377       -0.3446396447        0.8453016481
 N         -1.3698370311        0.3567744416       -0.1262194800
 O         -1.3445252562       -0.0590625359       -1.2365943283
 O         -1.9280157290        1.3035505129        0.3080874655
 H          2.7256877544        1.3987645775        0.7791207550
 H          2.2075038991        2.0517213536       -0.7742830967
 H          1.0127448401        1.5661278596        0.4245005351
 H          1.3257978794       -0.1357506623       -1.4659372824
 H          3.0024276838       -0.2958822914       -0.9642499708
 H          2.0966173591       -2.1096409977        0.1664841895
 H          1.9214486487       -0.8673055280        1.4095998281
 H         -0.2401490785       -1.7927108863       -0.5490637114
 H         -0.1181767154       -2.2498764755        1.1708002208
  17
        -28.16453697
 C          2.0172745447        1.2593465175        0.1265378133
 C          2.5206886936       -0.1626196404        0.3468301614
 C          1.6753435263       -1.2229122791       -0.3598067944
 C          0.2223713426       -1.2573330320        0.1059071503
 O         -0.5193413393       -0.2990643737       -0.6386387407
 N         -1.5698163644        0.3448442235       -0.0099817849
 O         -1.8018365854        0.0429206673        1.1152570131
 O         -2.1114580167        1.1363879475       -0.7013388737
 H          1.8566777209        1.4489719006       -0.9319535591
 H          1.0835242433        1.4353839394        0.6544259846
 H          2.7456955116        1.9758378471        0.4983862282
 H          3.5418341603       -0.2414331670       -0.0313155970
 H          2.5480966865       -0.3778008962        1.4175572030
 H          1.6780906678       -1.0416668553       -1.4354711926
 H          2.1119327126       -2.2058200161       -0.1787720693
 H         -0.2224202480       -2.2417149147       -0.0763826211
 H          0.1427602363       -1.0298304504        1.1740827593
  17
        -28.16419146
 C          3.1787973272       -0.1789906130       -0.7794714295
 C          2.1305364297        0.7266779140       -0.1444794624
 C          1.3004940854        0.0003540251        0.9145700615
 C          0.3358523551       -1.0351711104        0.3169477498
 O         -1.0188175455       -0.7680127290        0.6535887202
 N         -1.6783273711        0.1861903211       -0.1109970533
 O         -1.0746105293        0.6749730938       -1.0079149658
 O         -2.7885771706        0.3824092147        0.2429702096
 H          3.8645066592       -0.5556697668       -0.0235252608
 H          2.7173070354       -1.0295065818       -1.2752510491
 H          3.7539619163        0.3729901719       -1.5183381922
 H          2.6334738788        1.5714045010        0.3298362879
 H          1.4673289885        1.1235505065       -0.9148925887
 H          1.9683216481       -0.4883980826        1.6245597985
 H          0.7112515154        0.7293581203        1.4750453888
 H          0.4287588443       -1.0663147091       -0.7733092449
 H          0.5049137628       -2.0332805971        0.7208256697
  17
        -28.16378045
 C          2.9802693761        0.8621722691        0.5325917565
 C          2.6915086218       -0.3626770729       -0.3271254594
 C          1.2148814200       -0.4699806898       -0.7083209074
 C          0.3209384644       -0.8378206038        0.4853040049
 O         -0.6554826274        0.1532270217        0.7681025944
 N         -1.7662950749        0.1772302259       -0.0650624571
 O         -1.8188660445       -0.6466629824       -0.9175020981
 O         -2.5324557399        1.0374686817        0.1994931907
 H          2.3871848257        0.8534305409        1.4436575248
 H          4.0310770880        0.8910877409        0.8096963650
 H          2.7457391722        1.7720624752       -0.0151638982
 H          3.2818224396       -0.3013627941       -1.2431279779
 H          2.9952352690       -1.2692957414        0.2005610437
 H          0.8877024322        0.4920330445       -1.1087273362
 H          1.0905561603       -1.2132022447       -1.4959765658
 H         -0.1840269411       -1.7943347611        0.3180470204
 H          0.8968392964       -0.8968764262        1.4091623130
  17
        -28.16344511
 C          3.3209845516        0.4279320077       -0.9076232592
 C          2.6785504914       -0.2665056159        0.2875349326
 C          1.2493217688        0.2368240933        0.5485672703
 C          0.2377427591       -0.9061017172        0.4859579510
 O         -1.0737414539       -0.4864278874        0.8354724581
 N         -1.8087372993        0.1603174136       -0.1490190775
 O         -1.2972679893        0.2850592280       -1.2125952416
 O         -2.8787527846        0.5037181464        0.2159024805
 H          3.3882137031        1.4996468804       -0.7360886426
 H          4.3247152049        0.0446493349       -1.0748013544
 H          2.7342767163        0.2584880021       -1.8073771912
 H          2.6587228619       -1.3423594580        0.1027407506
 H          3.2956011340       -0.1015847914        1.1713534675
 H          1.1760689884        0.7072994095        1.5299183366
 H          0.9829634102        0.9829217404       -0.2020017838
 H          0.2231585415       -1.3485807839       -0.5159803445
 H          0.4701132251       -1.6759016568        1.2235673383
