! r2scan-3c def2/J RI DEFGRID2 scfconv6 printgap
%output
    printlevel normal
end
%cpcm
    smd true
    smdsolvent "water"
end
* xyz 0 1
C -2.7522807735 -0.3642313916 -0.0321320313
C -1.3036223024 -0.463497794 0.4319298659
C -0.3707272721 0.2813037211 -0.5279093761
C 1.0745182621 0.2892667049 -0.0986819027
O 1.7239506675 1.3184895676 -0.0693444793
C 1.6659870419 -1.0362231658 0.278273953
H -3.069531589 0.6747949593 -0.0801473337
H -3.4064860472 -0.8907414688 0.6578135864
H -2.8676285581 -0.8036567848 -1.0199745414
H -1.0183351259 -1.5135881969 0.489472389
H -1.2120251497 -0.0294464911 1.4295825246
H -0.4140058427 -0.195368413 -1.5106297137
H -0.6991036097 1.3167003551 -0.6415769088
H 2.7503417749 -0.9681431074 0.2917087441
H 1.3413902109 -1.8126445525 -0.4070890014
H 1.3225534728 -1.2946787382 1.2781224789
*
