  20
  -39.7901646500000       8.335560144679635E-002 !mtd13
 C         -4.5150117873        0.7822996811        0.0017388835
 O         -3.0953587027        0.8467960464        0.0021163577
 C         -2.4581748743       -0.3281354863       -0.0008767677
 O         -3.0214167177       -1.3934222727       -0.0033806660
 C         -0.9755665387       -0.1724489945       -0.0001717465
 C         -0.3697704323        1.0824935450       -0.0016451481
 C          1.0075542327        1.1792861866       -0.0014896700
 C          1.7706326737        0.0173832355        0.0001232521
 C          1.1784488141       -1.2401733324        0.0016783726
 C         -0.1985663070       -1.3300537145        0.0015224421
 N          3.2135932517        0.1203996335        0.0000498448
 O          3.6955699917        1.2316569421       -0.0002616308
 O          3.8487196600       -0.9106070067        0.0005137009
 H         -4.8658093536        1.8108108458        0.0018531139
 H         -4.8699999627        0.2540821449        0.8888075660
 H         -4.8695512191        0.2543613259       -0.8856720948
 H         -0.9812225747        1.9703096268       -0.0028877181
 H          1.5059279386        2.1367722820       -0.0027148400
 H          1.8038807030       -2.1197614710        0.0029219527
 H         -0.6963301710       -2.2875518805        0.0025853143
  20
  -39.7901646500000       8.335560144679635E-002 !md1
 C         -4.4930593114       -0.8998547221        0.0040543245
 O         -3.0722147309       -0.9272853180        0.0065772926
 C         -2.4658936480        0.2638416760       -0.0017185629
 O         -3.0567724246        1.3139834913       -0.0098833792
 C         -0.9797486244        0.1469267287       -0.0000731570
 C         -0.2332020948        1.3244001050       -0.0058696113
 C          1.1456926927        1.2705059820       -0.0057118405
 C          1.7704910130        0.0288542539        0.0002907277
 C          1.0379810709       -1.1525467474        0.0063238896
 C         -0.3414148774       -1.0917517226        0.0061328175
 N          3.2156642968       -0.0364665058        0.0000992441
 O          3.8236507123        1.0107513376       -0.0050443931
 O          3.7264629974       -1.1347549678        0.0049906197
 H         -4.8599177280       -0.3874703092       -0.8874394659
 H         -4.8629461157       -0.3750059906        0.8869760323
 H         -4.8169519038       -1.9371576086        0.0107702621
 H         -0.7558077004        2.2685557279       -0.0105782192
 H          1.7479368416        2.1661289809       -0.0102671407
 H          1.5611547970       -2.0966944264        0.0109416226
 H         -0.9294531618       -1.9952176122        0.0106941350
  20
  -39.7901645200000       8.334413539438830E-002 !mtd7
 C         -4.5147744940        0.7828156082       -0.0005594120
 O         -3.0951284529        0.8467670258       -0.0005456895
 C         -2.4581949060       -0.3283305095        0.0005401105
 O         -3.0216528571       -1.3934421721        0.0007958749
 C         -0.9755871074       -0.1727726500       -0.0000309564
 C         -0.3699014146        1.0822097647        0.0050424956
 C          1.0074118171        1.1791620311        0.0051785662
 C          1.7706154565        0.0173468660       -0.0000465332
 C          1.1785466874       -1.2402498649       -0.0052366463
 C         -0.1984685216       -1.3302849984       -0.0050844718
 N          3.2135593965        0.1205344811        0.0000536768
 O          3.8488315571       -0.9103320344       -0.0099246169
 O          3.6953789542        1.2317940956        0.0098926698
 H         -4.8650807916        1.8115060371        0.0018838404
 H         -4.8697287093        0.2527379347        0.8854263302
 H         -4.8698573346        0.2570901376       -0.8890232293
 H         -0.9814219418        1.9699423027        0.0088440604
 H          1.5056272964        2.1367085630        0.0089892217
 H          1.8040865445       -2.1197618732       -0.0091484083
 H         -0.6961218326       -2.2878440037       -0.0088362698
  20
  -39.7901644600000       8.333884390251324E-002 !mtd4
 C         -4.5002374149       -0.6681051789        0.5460223371
 O         -3.0796994671       -0.6906309583        0.5796107477
 C         -2.4635497097        0.2030639110       -0.2002442415
 O         -3.0456552202        0.9930240453       -0.8996099247
 C         -0.9784620242        0.1126513454       -0.1071629374
 C         -0.2220406118        1.0005403732       -0.8708843411
 C          1.1563217185        0.9573479377       -0.8206586372
 C          1.7706116078        0.0184337816       -0.0001727531
 C          1.0281867203       -0.8724429413        0.7662890997
 C         -0.3506044384       -0.8239686687        0.7116133108
 N          3.2151359137       -0.0337349519        0.0580068476
 O          3.7166120503       -0.8630508721        0.7846073970
 O          3.8319760758        0.7547012842       -0.6233323033
 H         -4.8580650144       -0.8772220044       -0.4640384961
 H         -4.8706101632        0.3119550162        0.8530458023
 H         -4.8326062672       -1.4377856062        1.2374629285
 H         -0.7366284511        1.7144403400       -1.4954736297
 H          1.7661050119        1.6326231497       -1.4011937102
 H          1.5433577804       -1.5865008738        1.3906835587
 H         -0.9462467541       -1.5052167949        1.2974227808
  20
  -39.7901644600000       8.333884390251324E-002 !gc
 C         -4.5140637535        0.7845691835       -0.0012904080
 O         -3.0944105543        0.8467291185       -0.0016511024
 C         -2.4583000653       -0.3288103782        0.0005526748
 O         -3.0222963523       -1.3936319304        0.0024607455
 C         -0.9756425742       -0.1736373180        0.0001877242
 C         -0.3701605895        1.0814762202        0.0013878086
 C          1.0070770085        1.1787924794        0.0012685147
 C          1.7705483841        0.0171275554       -0.0000663041
 C          1.1787452010       -1.2405795956       -0.0013258426
 C         -0.1983118346       -1.3309913921       -0.0011649726
 N          3.2134491877        0.1208571331       -0.0000262387
 O          3.6948054388        1.2323843331       -0.0002780934
 O          3.8491277552       -0.9098040456        0.0000396556
 H         -4.8699655375        0.2656099062        0.8908796837
 H         -4.8698344859        0.2488941710       -0.8835607559
 H         -4.8629467142        1.8137139707       -0.0108866665
 H         -0.9819604043        1.9690325809        0.0024486802
 H          1.5050187556        2.1364915427        0.0022666368
 H          1.8044972930       -2.1199544480       -0.0023834449
 H         -0.6954638597       -2.2887974258       -0.0020946285
  20
  -39.7901644000000       8.333355274659326E-002 !mtd5
 C         -4.4926662509       -0.9007266368        0.0152583683
 O         -3.0717978384       -0.9272320657        0.0146973350
 C         -2.4659633204        0.2640081054       -0.0054506388
 O         -3.0571522038        1.3138504992       -0.0225243883
 C         -0.9797772869        0.1473410461       -0.0035046299
 C         -0.2331314326        1.3246878306       -0.0155972075
 C          1.1457801540        1.2706268568       -0.0137512253
 C          1.7704403910        0.0289774452       -0.0001715796
 C          1.0378126343       -1.1523138146        0.0115666053
 C         -0.3415519160       -1.0913481309        0.0100544797
 N          3.2155934489       -0.0365628999        0.0017861140
 O          3.8237904424        1.0105853520       -0.0045233709
 O          3.7262062599       -1.1349312746        0.0095547117
 H         -4.8605639923       -0.3552933449        0.8864390710
 H         -4.8157480517       -1.9378163806        0.0473146228
 H         -4.8623105150       -0.4100483602       -0.8872171840
 H         -0.7555451604        2.2689066009       -0.0261567225
 H          1.7481653458        2.1661359787       -0.0227612433
 H          1.5608472476       -2.0964857508        0.0218687536
 H         -0.9297300179       -1.9946739116        0.0190876096
  20
  -39.7901643500000       8.332914370608813E-002 !mtd8
 C         -4.5152844088        0.7815240152       -0.0044908920
 O         -3.0956913039        0.8468099230       -0.0003951107
 C         -2.4580974068       -0.3279159972        0.0009941596
 O         -3.0211740795       -1.3932958216       -0.0000801078
 C         -0.9755569470       -0.1720606825        0.0025013002
 C         -0.3696674689        1.0828173252        0.0012980687
 C          1.0076980851        1.1794407846        0.0005592511
 C          1.7706666821        0.0174603532        0.0009506643
 C          1.1783721943       -1.2400426345        0.0029157738
 C         -0.1986373074       -1.3297447539        0.0037390453
 N          3.2136563608        0.1202563365       -0.0012225672
 O          3.6958250118        1.2314050880        0.0032479924
 O          3.8485867746       -0.9108607690       -0.0075537874
 H         -4.8670490838        0.2528307983       -0.8925813178
 H         -4.8667127301        1.8098267489       -0.0059806434
 H         -4.8724124018        0.2535527306        0.8818823962
 H         -0.9809967179        1.9707035521        0.0007763729
 H          1.5061782476        2.1368720307       -0.0005683815
 H          1.8037198239       -2.1196961987        0.0034323932
 H         -0.6965955454       -2.2871355067        0.0050184282
  20
  -39.7901643200000       8.332649839438439E-002 !mtd8
 C         -4.5147773746        0.7828728986        0.0025092922
 O         -3.0951188462        0.8467602713        0.0013078989
 C         -2.4582013983       -0.3283353659       -0.0007088350
 O         -3.0216468474       -1.3934737044       -0.0015193028
 C         -0.9755877332       -0.1727805048       -0.0011476842
 C         -0.3699075272        1.0822086757       -0.0047042642
 C          1.0074059611        1.1791520148       -0.0043433592
 C          1.7706092221        0.0173334355       -0.0003255097
 C          1.1785524864       -1.2402685363        0.0029472720
 C         -0.1984656242       -1.3302993704        0.0023962653
 N          3.2135610187        0.1205441205        0.0005934393
 O          3.8488297591       -0.9103556005        0.0067981073
 O          3.6953761674        1.2318478993       -0.0048599354
 H         -4.8713347352        0.2744570975       -0.8954516700
 H         -4.8650458088        1.8113385262        0.0251654508
 H         -4.8682645650        0.2357291700        0.8786303587
 H         -0.9814378935        1.9699456507       -0.0076309545
 H          1.5056423052        2.1366997045       -0.0069823865
 H          1.8040864994       -2.1197882496        0.0059582219
 H         -0.6961077903       -2.2878540673        0.0048944092
  20
  -39.7901643100000       8.332561664226917E-002 !gc
 C         -4.5139171890        0.7843696837        0.0046096623
 O         -3.0942545014        0.8468339562        0.0040211754
 C         -2.4582458420       -0.3287733447       -0.0017514099
 O         -3.0222725558       -1.3935995415       -0.0059761288
 C         -0.9756298749       -0.1737996416       -0.0012141742
 C         -0.3702831374        1.0813281817       -0.0034523209
 C          1.0069486740        1.1787051741       -0.0029345805
 C          1.7704922492        0.0171044108       -0.0001691141
 C          1.1787893910       -1.2406820836        0.0018737211
 C         -0.1982576875       -1.3311475842        0.0013144583
 N          3.2133800066        0.1210109689        0.0006006673
 O          3.8491818619       -0.9095814349       -0.0007588604
 O          3.6946070292        1.2326038468        0.0028091821
 H         -4.8688262425        0.2475538167        0.8865509320
 H         -4.8703127670        0.2663463803       -0.8879107286
 H         -4.8630149318        1.8134921376        0.0156836596
 H         -0.9821632956        1.9688278625       -0.0056324082
 H          1.5048448939        2.1364310973       -0.0046023048
 H          1.8045763087       -2.1200296862        0.0038765379
 H         -0.6954190621       -2.2889322737        0.0027147908
  20
  -39.7901642700000       8.332208972711339E-002 !mtd3
 C         -4.4981796406       -0.8682910947       -0.0942401113
 O         -3.0775383346       -0.9030533976       -0.1025258344
 C         -2.4642897550        0.2765319352        0.0351626324
 O         -3.0490053717        1.3227639611        0.1594265149
 C         -0.9788612949        0.1519657753        0.0176858638
 C         -0.2252284240        1.3175940570        0.1485953409
 C          1.1533206566        1.2559213644        0.1400124078
 C          1.7706048110        0.0184703762       -0.0005814938
 C          1.0309822796       -1.1510996923       -0.1323804978
 C         -0.3480088757       -1.0825624613       -0.1230364052
 N          3.2153546517       -0.0550349108       -0.0097708414
 O          3.7194759061       -1.1489875117       -0.1373811427
 O          3.8296888065        0.9814548443        0.1111321198
 H         -4.8279589098       -1.8943057279       -0.2339475292
 H         -4.8659766994       -0.2317294144       -0.9013160463
 H         -4.8612529870       -0.4733217722        0.8566322565
 H         -0.7420838113        2.2588357083        0.2557921698
 H          1.7609946322        2.1423002703        0.2396319397
 H          1.5484287777       -2.0923416490       -0.2394334823
 H         -0.9415203330       -1.9768295160       -0.2234820608
  20
  -39.7901641900000       8.331503634527208E-002 !gc
 C         -4.4930143834       -0.8997858998       -0.0182193797
 O         -3.0721580372       -0.9271715645       -0.0169238121
 C         -2.4658991759        0.2638003844        0.0063359263
 O         -3.0568118054        1.3138023496        0.0258993811
 C         -0.9797436150        0.1469197326        0.0044994544
 C         -0.2332018572        1.3243751147        0.0132290562
 C          1.1456897446        1.2704889074        0.0110439551
 C          1.7704782121        0.0288503956        0.0005631184
 C          1.0379718717       -1.1525434313       -0.0073781167
 C         -0.3414221275       -1.0917428685       -0.0055461658
 N          3.2156451615       -0.0364517713       -0.0022782872
 O          3.8236749699        1.0108128177        0.0001171620
 O          3.7264241137       -1.1347641266       -0.0076947983
 H         -4.8167580192       -1.9370608948       -0.0316991924
 H         -4.8603562054       -0.3701610471       -0.8994643481
 H         -4.8625978971       -0.3921713729        0.8749355320
 H         -0.7558207423        2.2684961086        0.0214942200
 H          1.7479616922        2.1660892004        0.0171813106
 H          1.5611332127       -2.0966636066       -0.0152025700
 H         -0.9294720907       -1.9951976948       -0.0117322866
  20
  -39.7901641900000       8.331503634527208E-002 !mtd11
 C         -4.4996992857       -0.7228681807        0.4763309322
 O         -3.0791083194       -0.7507819229        0.5029807944
 C         -2.4637496344        0.2235540181       -0.1741516734
 O         -3.0465721419        1.0866012838       -0.7803768815
 C         -0.9785590761        0.1227011539       -0.0944070263
 C         -0.2229628983        1.0912198617       -0.7538447543
 C          1.1554461744        1.0432019540       -0.7097245494
 C          1.7706167552        0.0179775639       -0.0007734322
 C          1.0290216358       -0.9542426477        0.6604093823
 C         -0.3498242592       -0.9003248179        0.6126734210
 N          3.2151953975       -0.0393592596        0.0508783156
 O          3.7175186660       -0.9498670752        0.6719761371
 O          3.8312077583        0.8267997925       -0.5293042292
 H         -4.8681107490        0.2060908412        0.9160954385
 H         -4.8312386304       -1.5796514388        1.0568712888
 H         -4.8603563253       -0.7909797252       -0.5519358839
 H         -0.7382362686        1.8708298784       -1.2935430277
 H          1.7646108114        1.7799854800       -1.2106752053
 H          1.5448617706       -1.7340804332        1.1997736119
 H         -0.9448325998       -1.6436248343        1.1181984757
