! r2scan-3c def2/J RI DEFGRID2 scfconv6 printgap
%output
    printlevel normal
end
* xyz 0 1
C -1.2446124561 0.241090126 -0.2575067672
C 0.1264383008 0.6661543636 0.292537171
C 1.2508307614 -0.2090086971 -0.2963523981
O 1.125984776 -1.5677543646 0.0582045284
O 0.305235872 2.0203493168 -0.0551026397
O -1.6460578725 -1.0275238534 0.1911382373
H -1.212721409 0.2831569446 -1.3545697356
H -1.9986061673 0.9507202651 0.0912242846
H 0.1042975508 0.5467348006 1.3877595864
H 2.2263346729 0.1857735071 0.0137060394
H 1.1966448954 -0.1711801814 -1.3875997135
H 1.3382802308 -1.6784865833 0.9957784323
H 1.1266135763 2.3544463435 0.333041146
H -0.9514061674 -1.6653691301 -0.0486407854
*
