! r2scan-3c def2/J RI DEFGRID2 scfconv6 printgap
%output
    printlevel normal
end
* xyz 0 1
C 1.3945234115 1.4983871642 0.8402625086
C 1.4348201906 0.1697474505 0.0937883706
C 0.0847560872 -0.5361654061 -0.1463231845
C 0.3800311992 -1.7654812036 -1.0199296923
C -0.5055186066 -1.029487873 1.1763511797
C -0.9082324775 0.359183622 -0.9218121179
C -1.8363620849 1.2432956563 -0.0920017542
H 0.9040269793 1.396157844 1.8045129597
H 0.8798683368 2.258800891 0.2598089501
H 2.4113704554 1.8439473908 1.0163379334
H 1.908312744 0.3376601758 -0.8772922099
H 2.0757966513 -0.518715648 0.6507962906
H 1.1400678342 -2.3912413851 -0.5571010461
H 0.7393152597 -1.4607928843 -2.0006637756
H -0.5180727002 -2.3642105182 -1.1543434076
H -1.447232462 -1.5444481916 1.0006431792
H 0.1810640495 -1.7287922631 1.6491140629
H -0.6845405087 -0.2103831741 1.8655719896
H -0.3364225687 0.9882567953 -1.6081133753
H -1.5409854498 -0.2875608304 -1.5348936256
H -2.5250453945 0.6410699854 0.4940127928
H -1.2873546482 1.8922071105 0.5821779259
H -2.4247214397 1.869259905 -0.7603845068
*
