  7
  -10.3567065700000       0.333335684869117      !md2
 C         -1.2562757032       -0.1621753122        0.0000059122
 C          0.1261115965        0.4076744486        0.0000052688
 O          1.1421450317       -0.2257820586       -0.0000003300
 H         -1.7906855654        0.1954613086        0.8783167608
 H         -1.7902683594        0.1946909474       -0.8788783496
 H         -1.2266417928       -1.2483557796        0.0004485472
 H          0.1451945512        1.5166888306       -0.0000149614
  7
  -10.3567065700000       0.333335684869117      !gc
 C         -1.2562889254       -0.1621758778        0.0000006164
 C          0.1261066168        0.4076782447       -0.0000000270
 O          1.1421606550       -0.2257860764       -0.0000056259
 H         -1.2266605161       -1.2483595460        0.0002500520
 H         -1.7905916724        0.1952987984        0.8784500365
 H         -1.7903568721        0.1948755762       -0.8787698990
 H          0.1451768002        1.5166957601        0.0001520905
  7
  -10.3567065500000       0.333328630261767      !md2
 C         -1.2562714238       -0.1621562213       -0.0000020230
 C          0.1260775972        0.4076566500       -0.0000026665
 O          1.1421656275       -0.2257758307       -0.0000082654
 H         -1.7905054874        0.1945148683       -0.8788713925
 H         -1.2265772966       -1.2483925851        0.0006286362
 H         -1.7906277753        0.1955214384        0.8783213210
 H          0.1453366247        1.5167273235        0.0001085244
