  7
        -10.35670657
 C         -1.2562757032       -0.1621753122        0.0000059122
 C          0.1261115965        0.4076744486        0.0000052688
 O          1.1421450317       -0.2257820586       -0.0000003300
 H         -1.7906855654        0.1954613086        0.8783167608
 H         -1.7902683594        0.1946909474       -0.8788783496
 H         -1.2266417928       -1.2483557796        0.0004485472
 H          0.1451945512        1.5166888306       -0.0000149614
