! r2scan-3c def2/J RI DEFGRID2 scfconv6 printgap
%output
    printlevel normal
end
%cpcm
    smd true
    smdsolvent "water"
end
* xyz 0 1
C 1.885900737 1.2233946744 0.9766464954
C 1.5510882075 0.1204941704 -0.0225717487
C 0.0785980661 -0.340781232 -0.0573820261
C -0.0202826541 -1.4587898594 -1.1020036612
C -0.3313126338 -0.901106638 1.3074174053
C -0.8203836553 0.8456029762 -0.4520332759
C -2.2894041534 0.5071826963 -0.6876717972
H 1.6446640021 0.9197543933 1.9914158835
H 1.3495462311 2.1404997854 0.7492967781
H 2.9513828405 1.4389313769 0.9337872409
H 1.8273527784 0.4621274713 -1.023519944
H 2.1729117236 -0.7489054734 0.2059820174
H -1.0124760587 -1.900848202 -1.1087080671
H 0.6959378594 -2.2462658989 -0.8771967479
H 0.1959306387 -1.0743635473 -2.0964885037
H 0.4015006239 -1.627915495 1.6510930485
H -0.4083263295 -0.1096387603 2.0482088103
H -1.2944395077 -1.4006079987 1.2430205232
H -0.7695771069 1.5968020755 0.338094919
H -0.4173038267 1.2962821997 -1.3627403139
H -2.8413351265 1.41986528 -0.9025326723
H -2.4105135204 -0.1641602054 -1.5330822825
H -2.7311955054 0.0461487041 0.1914265438
*
