  15
        -15.77129995
 C          1.6499851974       -0.9713049669       -0.0479426568
 C          1.3529287821        0.5074925534        0.1686812660
 C         -0.0328328074        0.8929372994       -0.3604448451
 C         -1.1254564392        0.2151317518        0.4025338819
 C         -2.0468886435       -0.5636740956       -0.1325924036
 H          1.6277901535       -1.2114847605       -1.1085687410
 H          0.9066688817       -1.5850674635        0.4560901229
 H          2.6325677884       -1.2252023111        0.3423766412
 H          1.4072499050        0.7373060657        1.2350942968
 H          2.1086380699        1.1082046790       -0.3415324978
 H         -0.1057201101        0.6367930689       -1.4189751899
 H         -0.1564591521        1.9752762960       -0.2617335096
 H         -1.1218925103        0.3986381624        1.4698621192
 H         -2.8172386118       -1.0295099910        0.4582662974
 H         -2.0714047952       -0.7651844246       -1.1911661057
  15
        -15.77121099
 C          2.4181295597       -0.3061567736       -0.2613760415
 C          1.0972516749       -0.1322953655        0.4780859137
 C         -0.0359959019        0.2637485130       -0.4739720417
 C         -1.3234628495        0.4555799308        0.2608974329
 C         -2.4287170259       -0.2286737942        0.0321767634
 H          3.2071557341       -0.5905450700        0.4304664467
 H          2.7064645301        0.6219198102       -0.7501165378
 H          2.3308358118       -1.0802890488       -1.0204445099
 H          0.8315629968       -1.0660939189        0.9786935084
 H          1.2072907098        0.6365028028        1.2461240667
 H         -0.1567094390       -0.5046840762       -1.2398412667
 H          0.2346992717        1.2000677174       -0.9705545557
 H         -1.3023990811        1.2098547996        1.0375655448
 H         -3.3326667159       -0.0606024287        0.5924668023
 H         -2.4755832152       -0.9881816032       -0.7310996579
  15
        -15.77017948
 C          1.9559983937       -0.7969285082       -0.1217813014
 C          1.2163998567        0.4191202262        0.4237787435
 C         -0.0384694866        0.7742068459       -0.3866705747
 C         -1.1039344466       -0.2693905918       -0.2737237850
 C         -2.2549729573       -0.0923383829        0.3475868296
 H          2.8734854767       -0.9610012829        0.4386032240
 H          2.2149812622       -0.6474572133       -1.1678031974
 H          1.3456992429       -1.6924835645       -0.0408881893
 H          0.9285896506        0.2365976059        1.4614411864
 H          1.8889378364        1.2796668140        0.4106397512
 H          0.2431644245        0.8892367434       -1.4366484618
 H         -0.4302190992        1.7288840379       -0.0300578975
 H         -0.8808441516       -1.2218200477       -0.7354251065
 H         -2.9955547273       -0.8711127637        0.4151378878
 H         -2.5073690111        0.8463629272        0.8138150339
  15
        -15.77000218
 C          2.3515383463       -0.2890183828       -0.0553991638
 C          0.8495815953       -0.5429132168        0.0052319819
 C          0.0642334931        0.7642685991       -0.0468486552
 C         -1.4253733338        0.6216634721        0.0082647275
 C         -2.1130460081       -0.5018926418        0.0941152182
 H          2.6686247257        0.3278152335        0.7827376421
 H          2.6150814678        0.2244552398       -0.9775492770
 H          2.8991842026       -1.2274853564       -0.0168849772
 H          0.5558752823       -1.1757826339       -0.8345085964
 H          0.6097536928       -1.0729868807        0.9290360654
 H          0.3196817942        1.3016666303       -0.9659371232
 H          0.3744217837        1.4041749719        0.7856760040
 H         -1.9561388392        1.5658318473       -0.0292461501
 H         -3.1893992081       -0.4996043662        0.1279063136
 H         -1.6432006882       -1.4690074754        0.1348507727
  15
        -15.76886535
 C          1.6098269941       -0.9528543982       -0.2583379977
 C          1.1415383564        0.2955094830        0.4812233203
 C          0.0427524637        1.0381047823       -0.2778219536
 C         -1.2921264810        0.3578123645       -0.3378718565
 C         -1.7088237583       -0.6587508797        0.3940462913
 H          2.3732674292       -1.4726197380        0.3157248555
 H          2.0313544036       -0.6835187176       -1.2244598591
 H          0.7796965439       -1.6336051699       -0.4278869034
 H          0.7851323682        0.0282589102        1.4770125622
 H          1.9906885155        0.9706858871        0.6092344963
 H          0.3799452459        1.2213164405       -1.3021353346
 H         -0.1114427744        2.0196915248        0.1830780651
 H         -1.9700600364        0.7969899517       -1.0606159987
 H         -2.7013400428       -1.0611082069        0.2800170770
 H         -1.0926030986       -1.1372511333        1.1352812294
  15
        -15.76882249
 C          1.9772445911       -0.8237427837       -0.0299422625
 C          1.3294389418        0.5318776207        0.2298490805
 C         -0.0497983176        0.6496094121       -0.4195899382
 C         -1.0965216674       -0.1788909244        0.2662846138
 C         -2.3841419824       -0.1363738447       -0.0229047613
 H          1.3542086112       -1.6312364907        0.3467341074
 H          2.9466475231       -0.8824662944        0.4592661839
 H          2.1210159078       -0.9760284254       -1.0975758326
 H          1.2365100454        0.6952709356        1.3059106265
 H          1.9772066456        1.3159399925       -0.1683252379
 H          0.0214311736        0.3424908075       -1.4671317731
 H         -0.3674873319        1.6955137171       -0.4152659255
 H         -0.7452796137       -0.8380813597        1.0486011964
 H         -3.1076836960       -0.7388205035        0.4989776609
 H         -2.7700001475        0.5112273371       -0.7935639471
