! pbe def2-sv(p) def2/J RI DEFGRID1 loosescf d4 GCP(DFT/SV(P)) printgap
%output
    printlevel normal
end
* xyz 0 1
C 1.0166197534 -1.2531451674 0.6760743111
C 1.0803325906 0.2503947774 0.422048404
C 1.7298571964 0.5391762539 -0.930794039
C -0.2972198699 0.9166730563 0.5593769847
C -1.3587942117 0.4985432704 -0.4583527361
O -1.8720607771 -0.7816463325 -0.1381189101
H 2.0118933456 -1.6884107862 0.6200584246
H 0.3808478297 -1.7381087863 -0.058949243
H 0.6035240491 -1.4553714447 1.6613249528
H 1.7132932263 0.6980144723 1.198386455
H 1.7071621158 1.604351381 -1.1491519564
H 1.2185982238 0.0075788813 -1.7292303647
H 2.7666342729 0.2115331856 -0.9220735135
H -0.1681149286 1.9973943899 0.4731373146
H -0.6940341015 0.6999243653 1.5532005647
H -2.1721849007 1.2373515076 -0.427207619
H -0.9376570571 0.497029503 -1.4709762517
H -2.581936536 -1.0040200944 -0.7539431972
*
