! pbe def2-sv(p) def2/J RI DEFGRID1 loosescf d4 GCP(DFT/SV(P)) printgap
%output
    printlevel normal
end
* xyz 0 1
C 2.0004915369 0.5758322791 0.7345382153
C 1.4998442985 -0.4180580276 -0.3078784246
C 0.259848991 0.028886628 -1.0889299983
C -1.1044569377 -0.0032857425 -0.3771858873
C -1.306313213 1.1391173234 0.6172686993
C -1.376710282 -1.347257339 0.2953438188
H 1.3406816374 0.6202753529 1.5952461597
H 2.9869919993 0.2792738811 1.0852488847
H 2.0755297368 1.572690079 0.3060619986
H 2.2988066131 -0.5693526642 -1.0391010854
H 1.3132371994 -1.3824422774 0.1654561153
H 0.4291289344 1.0418643909 -1.4628765559
H 0.1786662183 -0.6263148917 -1.961091207
H -1.8518931357 0.128487484 -1.1705877986
H -2.3535356978 1.1949062562 0.9079123276
H -1.0239819147 2.0907703007 0.1736009105
H -0.7186277358 0.9886591512 1.5175007987
H -1.2070241824 -2.1660453975 -0.4001989375
H -0.7332606493 -1.4851316299 1.1606519939
H -2.4094411917 -1.3925205216 0.63375314
*
