! pbe def2-sv(p) def2/J RI DEFGRID1 loosescf d4 GCP(DFT/SV(P)) printgap
%output
    printlevel normal
end
* xyz 0 1
C -1.1812623595 0.230469141 -0.3838440307
C 0.0059636979 0.6708692851 0.4947042964
C 1.0732941453 -0.4406751032 0.5973341553
O 1.2626063869 -1.1812082249 -0.580746513
O 0.6223340226 1.8224096466 -0.040715209
O -1.6817275647 -1.0380407391 -0.0319438876
H -0.832526859 0.1504969085 -1.4169227824
H -1.9720649389 0.9897651246 -0.3431027403
H -0.3431196002 0.8842651117 1.5182263441
H 0.8141239888 -1.1080611292 1.4277736983
H 2.0309486937 0.0384357229 0.8110455912
H 0.4573619814 -1.6933209063 -0.7507806038
H -0.0280349878 2.532786813 -0.1329089996
H -2.1368612799 -0.9845110952 0.8194862455
*
