  26
        -53.59998074
 C          0.5115448301       -1.6987435173        0.5156458243
 C          1.8490282039       -2.0108393653        0.5631871632
 C          2.8228683490       -1.0425376048        0.2989394877
 C          2.4012681264        0.2669682788       -0.0138188651
 C          1.0384888415        0.5662158957       -0.0527658761
 C          0.0838677314       -0.4016113536        0.2067064408
 C         -1.3461631818       -0.0581187957        0.1665176722
 C         -1.8089965461        1.1339277584        0.7228756702
 C         -3.1467462926        1.4780829007        0.6960215511
 C         -4.0457700607        0.6147738883        0.0956136255
 C         -3.6380613469       -0.5760245394       -0.4759632819
 C         -2.2933649262       -0.8915165570       -0.4279568139
 F         -1.9044217724       -2.0433763313       -1.0089964346
 F         -5.3511584715        0.9381047880        0.0631725749
 C          3.4028533410        1.2958449149       -0.2964882394
 O          4.6072797214        1.1018227703       -0.2852679303
 O          2.9022955154        2.5034125142       -0.5738210079
 O          4.1065323956       -1.3972456707        0.3559070177
 H         -0.2168388622       -2.4644902097        0.7328715994
 H          2.1803235451       -3.0080901791        0.8046263689
 H          0.7406829068        1.5697814641       -0.3131805080
 H         -1.1008946885        1.7928247224        1.2006515290
 H         -3.4980194994        2.3985113805        1.1335377259
 H         -4.3426920895       -1.2397123898       -0.9497924650
 H          3.6271245461        3.1232791250       -0.7516224122
 H          4.6638109525       -0.6150264509        0.1427026614
  26
        -53.59994692
 C          0.5217874936       -1.4291106859        1.3421959639
 C          1.8650199269       -1.6873206384        1.4717334836
 C          2.8096836328       -0.9371307934        0.7634527791
 C          2.3515483220        0.0895976846       -0.0878120633
 C          0.9826612141        0.3320162357       -0.2128320954
 C          0.0577353162       -0.4155058148        0.4947463946
 C         -1.3857486712       -0.1560325522        0.3777484008
 C         -2.2023436536       -0.1410482411        1.5078529269
 C         -3.5601328052        0.0996671437        1.4205892078
 C         -4.1186923275        0.3256761516        0.1753110001
 C         -3.3544451403        0.3154178382       -0.9766246666
 C         -1.9988739941        0.0764366041       -0.8531756979
 F         -1.2671433814        0.0451490490       -1.9837526567
 F         -5.4396729007        0.5607116327        0.0768582541
 C          3.3249303480        0.8908482011       -0.8332715984
 O          4.5324222580        0.7210245789       -0.7819514760
 O          2.7949398500        1.8507230305       -1.5927947955
 O          4.1012305935       -1.2252664050        0.9245901949
 H         -0.1904567476       -2.0324243205        1.8851353176
 H          2.2239426393       -2.4739655600        2.1161226487
 H          0.6627964246        1.1272573544       -0.8668216298
 H         -1.7536291145       -0.3042772759        2.4754228892
 H         -4.1845404760        0.1160394679        2.2991428551
 H         -3.7982492485        0.4839954041       -1.9441364439
 H          3.4994172795        2.3279938286       -2.0587451142
 H          4.6344507843       -0.6201593052        0.3602871296
  26
        -53.59478598
 C          0.4982570897       -1.7009573789       -0.5127753796
 C          1.8373351870       -2.0051699532       -0.5702559895
 C          2.8154046365       -1.0385404002       -0.3186404235
 C          2.4016565809        0.2689875652       -0.0075799307
 C          1.0349372330        0.5589744706        0.0415043010
 C          0.0731637314       -0.4043570755       -0.2035028967
 C         -1.3550786121       -0.0561344902       -0.1493688098
 C         -1.8172445406        1.1412964294       -0.6947510848
 C         -3.1536386833        1.4894559132       -0.6563017153
 C         -4.0514199480        0.6252736677       -0.0551789632
 C         -3.6438267264       -0.5702448195        0.5065829819
 C         -2.3005788824       -0.8898275597        0.4471041843
 F         -1.9114821147       -2.0471434686        1.0179881751
 F         -5.3556831098        0.9519343775       -0.0124076372
 C          3.3063202134        1.3940313757        0.2772450484
 O          2.9480439949        2.5192434289        0.5163269261
 O          4.6311003874        1.0865948165        0.2517880607
 O          4.0947493133       -1.4313349435       -0.3970764990
 H         -0.2280244901       -2.4707628170       -0.7215559840
 H          2.1709783287       -3.0017460617       -0.8118427992
 H          0.7525473281        1.5680061582        0.3017930733
 H         -1.1096982071        1.8018003835       -1.1708846338
 H         -3.5044281736        2.4144402232       -1.0844258333
 H         -4.3473157804       -1.2342256019        0.9817065039
 H          5.1457537164        1.8843333572        0.4508073342
 H          4.6856912973       -0.6879309015       -0.1967488051
  26
        -53.59403549
 C          0.4831764172       -1.9621987802        0.1578710117
 C          1.8267000359       -2.2455393292        0.2118551544
 C          2.7862972581       -1.2365564034        0.0839204008
 C          2.3489843159        0.0859769235       -0.1057171398
 C          0.9776289623        0.3549633526       -0.1478760335
 C          0.0352997394       -0.6488741782       -0.0188812737
 C         -1.4058912433       -0.3583591707       -0.0773986744
 C         -2.2666494829       -1.1610806614       -0.8242261689
 C         -3.6223766021       -0.9029898671       -0.8939144380
 C         -4.1319316686        0.1781642625       -0.1972233184
 C         -3.3220509968        0.9997436709        0.5646220269
 C         -1.9699345068        0.7166627574        0.6088363755
 F         -1.1923935426        1.5034960889        1.3753932326
 F         -5.4503426365        0.4393218081       -0.2569763538
 C          3.2368233883        1.2473444815       -0.2821367760
 O          2.8659015045        2.3665523698       -0.5241678314
 O          4.5651390575        0.9770160646       -0.1569124611
 O          4.0724479369       -1.6104086854        0.1463213192
 H         -0.2356326162       -2.7592191823        0.2754369370
 H          2.1790730294       -3.2543095861        0.3581148245
 H          0.6801892368        1.3814266160       -0.2987806283
 H         -1.8551547274       -1.9929296159       -1.3746749889
 H         -4.2822609066       -1.5230223488       -1.4788661706
 H         -3.7281126235        1.8346614905        1.1118474935
 H          5.0678122203        1.7969527894       -0.2830043262
 H          4.6493328468       -0.8340633352        0.0638138393
  26
        -53.59153122
 C          0.4717680611       -1.7238947314       -0.7499874103
 C          1.8111179352       -2.0324022658       -0.7985746778
 C          2.7843982285       -1.0918026559       -0.4489418853
 C          2.3698414530        0.1896473780       -0.0464150360
 C          1.0019118739        0.4822504430       -0.0014899306
 C          0.0518396452       -0.4552249942       -0.3478893922
 C         -1.3918162494       -0.1279143857       -0.2850259804
 C         -2.0742935584        0.3617221983       -1.3921503875
 C         -3.4230241739        0.6625537680       -1.3275552500
 C         -4.0934910690        0.4669484684       -0.1335227365
 C         -3.4561986860       -0.0189693445        0.9934825268
 C         -2.1081173241       -0.3080063631        0.8935437608
 F         -1.4734586093       -0.7856526880        1.9803006999
 F         -5.4057742890        0.7547470113       -0.0614215721
 C          3.2733519787        1.2842533264        0.3427090306
 O          2.9167785671        2.3917866659        0.6536515362
 O          4.5966603158        0.9682881844        0.3296909343
 O          4.0642351120       -1.4851998004       -0.5287729554
 H         -0.2632679946       -2.4674663639       -1.0198904391
 H          2.1478183149       -3.0103121583       -1.1039211063
 H          0.7105850336        1.4722638501        0.3160931456
 H         -1.5335638445        0.5082884062       -2.3144049850
 H         -3.9546218150        1.0436720203       -2.1843376086
 H         -3.9890181783       -0.1677908559        1.9182894918
 H          5.1103900962        1.7444808028        0.6026551220
 H          4.6526521300       -0.7643980589       -0.2529242481
  26
        -53.59047796
 C          0.4989446047       -1.9014026658        0.5277034712
 C          1.8426970757       -2.1740154902        0.5968486781
 C          2.7935768913       -1.2086550712        0.2441398567
 C          2.3461922251        0.0711818434       -0.1493808160
 C          0.9748683515        0.3162206328       -0.2361459437
 C          0.0406985514       -0.6518523787        0.0941403974
 C         -1.4015340007       -0.3817294889       -0.0030353941
 C         -2.2804827643       -1.3487672785       -0.4908097019
 C         -3.6391317368       -1.1164362669       -0.5818820943
 C         -4.1371530797        0.1076829012       -0.1718786928
 C         -3.3097509146        1.0993586449        0.3219504192
 C         -1.9560570656        0.8351332692        0.3939007364
 F         -1.1579915480        1.8056337120        0.8907502165
 F         -5.4573520088        0.3450964468       -0.2542035976
 C          3.3533712906        1.1114758381       -0.4471711091
 O          4.5305612924        0.8533583803       -0.5999138774
 O          2.9452151506        2.3807382729       -0.5181376161
 O          4.0798640369       -1.5419933140        0.3087940048
 H         -0.2149597542       -2.6558978197        0.8210785223
 H          2.2018990332       -3.1381648753        0.9193478181
 H          0.6181490606        1.2647701796       -0.6139546097
 H         -1.8809952408       -2.2943281806       -0.8225152462
 H         -4.3112004312       -1.8665776311       -0.9659854207
 H         -3.7043419814        2.0485544670        0.6455328890
 H          2.0097300140        2.4902238241       -0.2979331364
 H          4.6232878678       -0.7833393905       -0.0103777260
