  26
        -53.59998074
 C          0.5115448301       -1.6987435173        0.5156458243
 C          1.8490282039       -2.0108393653        0.5631871632
 C          2.8228683490       -1.0425376048        0.2989394877
 C          2.4012681264        0.2669682788       -0.0138188651
 C          1.0384888415        0.5662158957       -0.0527658761
 C          0.0838677314       -0.4016113536        0.2067064408
 C         -1.3461631818       -0.0581187957        0.1665176722
 C         -1.8089965461        1.1339277584        0.7228756702
 C         -3.1467462926        1.4780829007        0.6960215511
 C         -4.0457700607        0.6147738883        0.0956136255
 C         -3.6380613469       -0.5760245394       -0.4759632819
 C         -2.2933649262       -0.8915165570       -0.4279568139
 F         -1.9044217724       -2.0433763313       -1.0089964346
 F         -5.3511584715        0.9381047880        0.0631725749
 C          3.4028533410        1.2958449149       -0.2964882394
 O          4.6072797214        1.1018227703       -0.2852679303
 O          2.9022955154        2.5034125142       -0.5738210079
 O          4.1065323956       -1.3972456707        0.3559070177
 H         -0.2168388622       -2.4644902097        0.7328715994
 H          2.1803235451       -3.0080901791        0.8046263689
 H          0.7406829068        1.5697814641       -0.3131805080
 H         -1.1008946885        1.7928247224        1.2006515290
 H         -3.4980194994        2.3985113805        1.1335377259
 H         -4.3426920895       -1.2397123898       -0.9497924650
 H          3.6271245461        3.1232791250       -0.7516224122
 H          4.6638109525       -0.6150264509        0.1427026614
