! pbe def2-sv(p) def2/J RI DEFGRID1 loosescf d4 GCP(DFT/SV(P)) printgap
%output
    printlevel normal
end
* xyz 0 1
C -3.0974328357 -0.2329131099 0.4739069317
C -2.095839657 -0.5793979296 -0.6223328074
C -0.8873051898 0.3585371199 -0.659143077
C 0.0435958493 0.2477994531 0.552348009
C 0.8615275607 -1.0467631265 0.5607687963
C 2.0493423348 -0.7801365663 -0.3742139582
C 2.2062542403 0.75052359 -0.4353187727
C 1.1427531978 1.3146611869 0.5131023956
H -2.6640123534 -0.3756955127 1.4603132807
H -3.4162507779 0.8032884527 0.3843234902
H -3.9751151598 -0.8703997213 0.3961624077
H -1.7629547989 -1.6107280759 -0.4926610525
H -2.6015432115 -0.5198645121 -1.5891760201
H -0.3143558708 0.1544858877 -1.5648007087
H -1.2526918496 1.386781811 -0.7238637366
H -0.550370242 0.3441692519 1.4639765612
H 1.2203446608 -1.2352812095 1.5738393555
H 0.2823138642 -1.9122287241 0.2449560516
H 2.9530080471 -1.2613225776 -0.0021364504
H 1.8504175133 -1.1831986057 -1.3671523268
H 3.2059223185 1.0660898695 -0.1396439212
H 2.0349344319 1.1107406226 -1.4496581384
H 1.563171751 1.4340635202 1.512956518
H 0.7709679106 2.2840585187 0.1839125425
*
