! pbe def2-sv(p) def2/J RI DEFGRID1 loosescf d4 GCP(DFT/SV(P)) printgap
%output
    printlevel normal
end
* xyz 0 1
C 2.2913644069 -0.0172726997 0.118733584
C 0.877564807 0.3858236006 -0.2503661305
O -0.0305458263 -0.5850175259 0.3164229776
C -1.3103332404 -0.3686707131 0.1874546201
O -1.8291901391 0.5696365374 -0.3646620858
H 2.403916662 -0.0373864327 1.1985618856
H 2.5112687283 -1.0051819879 -0.2744527404
H 2.9900196274 0.6989359324 -0.3008052263
H 0.7283484804 0.3995022035 -1.3341707818
H 0.6159442898 1.3717288031 0.1456726202
H -1.8764816921 -1.1820228777 0.6657287653
*
