  16
  -19.8784677600000       0.417835192675298      !hor
 C         -1.5347767081        0.6410215830       -0.0382884514
 C         -1.2595388722       -0.8049038493       -0.4432756568
 C         -0.0676827858       -1.1778290930        0.4350755093
 C          0.8107314781        0.0895413492        0.4697584990
 C         -0.1397290000        1.2549027349        0.1053864139
 O          1.9155582152        0.0051338131       -0.3998068489
 H         -2.0515265109        0.6578456295        0.9223598217
 H         -2.1469087097        1.1732367004       -0.7651374813
 H         -2.1165605662       -1.4569389487       -0.2824626004
 H         -0.9868867611       -0.8537199092       -1.4998399602
 H         -0.4109939386       -1.4146478663        1.4421129531
 H          0.4960911079       -2.0296891869        0.0563020157
 H          1.2605899240        0.2305280396        1.4555265777
 H         -0.1155966507        2.0452549581        0.8529655858
 H          0.1876311850        1.6865214102       -0.8426527381
 H          1.5863828689       -0.1524504424       -1.2925636865
  16
  -19.8784677300000       0.417821928354952      !mtd7
 C         -1.3273933101        0.6415916417       -0.5059894704
 C         -1.4671824397       -0.7839480503        0.0220778383
 C         -0.0212107284       -1.2487908012        0.2147400430
 C          0.8137763672        0.0281690444        0.4726178588
 C         -0.1802927232        1.1991547178        0.3333161739
 O          1.9084733339        0.1411262437       -0.4065188135
 H         -2.2428935522        1.2212094574       -0.3987141805
 H         -1.0553644928        0.6255662364       -1.5636952629
 H         -1.9857302677       -0.7672812404        0.9817647676
 H         -2.0220995019       -1.4318888030       -0.6550731166
 H          0.0730627315       -1.9646921849        1.0289100855
 H          0.3504398656       -1.7292599351       -0.6925792265
 H          1.2718739143        0.0156705648        1.4645794292
 H         -0.5492603827        1.4872499637        1.3176599146
 H          0.3021616548        2.0652142903       -0.1185819804
 H          1.5689034756        0.1902348737       -1.3077138323
  16
  -19.8763254600000       4.329842542250550E-002 !mtd2
 C         -1.5241968845        0.6500105032       -0.0660559068
 C         -1.2503626875       -0.7967212925       -0.4646485796
 C         -0.0869977004       -1.1795283004        0.4462043336
 C          0.7986506743        0.0812876901        0.4926774887
 C         -0.1251924872        1.2479442795        0.0955670500
 O          1.8587512236        0.0401991061       -0.4409714495
 H         -2.0563027620        0.6748324603        0.8867986661
 H         -2.1175379168        1.1860177456       -0.8048362239
 H         -2.1159171432       -1.4448361983       -0.3345103653
 H         -0.9318522672       -0.8391737284       -1.5067621632
 H         -0.4557581869       -1.4050079730        1.4478982723
 H          0.4667516938       -2.0439482477        0.0789479259
 H          1.2148168740        0.2220647788        1.5020042951
 H         -0.1003021364        2.0545258894        0.8254593283
 H          0.2394175889        1.6336537638       -0.8562660025
 H          2.4261393462       -0.7119146380       -0.2418046826
  16
  -19.8763254300000       4.329705089925960E-002 !mtd7
 C         -1.3186597265        0.6309973994       -0.5277986999
 C         -1.4555741566       -0.7948738260       -0.0034123035
 C         -0.0068333199       -1.2410120959        0.2034604070
 C          0.8001862782        0.0379897437        0.4949345928
 C         -0.2006117345        1.2004526871        0.3412182951
 O          1.8571656223        0.0979204334       -0.4412790566
 H         -2.2423532628        1.2029034030       -0.4509416387
 H         -1.0015179392        0.6125354723       -1.5710265059
 H         -1.9866753309       -0.7869358913        0.9502545017
 H         -1.9924471843       -1.4469812549       -0.6901083447
 H          0.0915899775       -1.9756492179        0.9999470355
 H          0.3968563259       -1.6706415399       -0.7130775680
 H          1.2218782367        0.0254770432        1.5116729219
 H         -0.5934961310        1.4775538225        1.3205690741
 H          0.2706817618        2.0774978519       -0.1030917085
 H          2.3513806317        0.9133660420       -0.3078933583
  16
  -19.8762236500000       3.887616948098688E-002 !mtd5
 C         -1.3909874414        0.6428475023       -0.4670179419
 C         -1.4884886096       -0.7735974208        0.0919987875
 C         -0.0352059652       -1.2394787992        0.0871703709
 C          0.7863435533        0.0121651825        0.4608140321
 C         -0.1505898806        1.2117107992        0.2234891170
 O          1.9373595368        0.1704131038       -0.3423571002
 H         -2.2821962719        1.2367916928       -0.2707816475
 H         -1.2326530889        0.6005380602       -1.5451206498
 H         -1.8692924034       -0.7457869266        1.1145057823
 H         -2.1343327487       -1.4201155408       -0.5005915412
 H          0.1432524521       -2.0724421119        0.7669236868
 H          0.2477839406       -1.5458159412       -0.9220982350
 H          1.0899965712       -0.0317076747        1.5183293297
 H         -0.4200475466        1.6687898618        1.1750646107
 H          0.3624071333        1.9536477424       -0.3848818314
 H          2.4991083162       -0.6049713909       -0.2412643715
  16
  -19.8762235300000       3.887123316699824E-002 !mtd2
 C         -1.5552253925        0.6347920808        0.0285877975
 C         -1.3205505310       -0.8064863445       -0.4142359383
 C         -0.0383280833       -1.1983379546        0.3215528195
 C          0.7804403989        0.0992466531        0.4606202956
 C         -0.1520328205        1.2336193262       -0.0136757327
 O          1.9474423077       -0.0144605291       -0.3270685037
 H         -1.9398335815        0.6535114669        1.0499831756
 H         -2.2542680930        1.1677748647       -0.6145858860
 H         -2.1538395513       -1.4641105830       -0.1716266540
 H         -1.1573373020       -0.8362714412       -1.4920653672
 H         -0.2722422317       -1.5993415056        1.3071992647
 H          0.5468716706       -1.9360096226       -0.2234128747
 H          1.0704020975        0.2568929904        1.5111383988
 H         -0.0578184230        2.1318732069        0.5960969888
 H          0.1089708536        1.4824592942       -1.0443907525
 H          2.4337213527        0.8156724508       -0.2888119596
