  16
        -19.87846776
 C         -1.5347767081        0.6410215830       -0.0382884514
 C         -1.2595388722       -0.8049038493       -0.4432756568
 C         -0.0676827858       -1.1778290930        0.4350755093
 C          0.8107314781        0.0895413492        0.4697584990
 C         -0.1397290000        1.2549027349        0.1053864139
 O          1.9155582152        0.0051338131       -0.3998068489
 H         -2.0515265109        0.6578456295        0.9223598217
 H         -2.1469087097        1.1732367004       -0.7651374813
 H         -2.1165605662       -1.4569389487       -0.2824626004
 H         -0.9868867611       -0.8537199092       -1.4998399602
 H         -0.4109939386       -1.4146478663        1.4421129531
 H          0.4960911079       -2.0296891869        0.0563020157
 H          1.2605899240        0.2305280396        1.4555265777
 H         -0.1155966507        2.0452549581        0.8529655858
 H          0.1876311850        1.6865214102       -0.8426527381
 H          1.5863828689       -0.1524504424       -1.2925636865
