! pbe def2-sv(p) def2/J RI DEFGRID1 loosescf d4 GCP(DFT/SV(P)) printgap
%output
    printlevel normal
end
* xyz 0 1
C -1.0275553423 -0.3635545033 -0.3836415592
C 0.14502165 0.3843126381 0.2649635305
C 1.4712133578 -0.0942391139 -0.3471859162
O 1.6655543219 -1.4422173957 0.0147154963
O -0.0442765058 1.7659967647 0.0600878007
O -2.2430156736 -0.2215922685 0.3077351719
H -0.7516147592 -1.4211088476 -0.4756718737
H -1.2016453591 0.0576675942 -1.375952117
H 0.1607351573 0.1493792778 1.3402514983
H 2.2882868204 0.5302793266 0.0384064112
H 1.4199080172 0.0232120985 -1.4367740346
H 2.4855907063 -1.7666904085 -0.3829424618
H 0.602602542 2.2696894863 0.5736623553
H -2.1495686172 -0.5888733612 1.1981373694
*
