! r2scan-3c def2/J RI DEFGRID2 scfconv6 printgap
%output
    printlevel normal
end
%cpcm
    smd true
    smdsolvent "water"
end
* xyz 0 1
C -2.2146390226 0.2820209591 -1.1284383607
C -2.1865765715 -0.5985787789 0.1148957606
C -1.2264870119 -0.1450925583 1.2196266409
C 0.2782896236 -0.0640648932 0.9124816693
C 0.8627025848 -1.1715167194 0.0100869419
C 1.8517382931 -0.4763315054 -0.9406931553
C 2.0905445428 0.9026849274 -0.3271563221
C 0.7301119604 1.2526781424 0.2648087646
H -2.3880054925 1.3210778212 -0.8569508971
H -1.2814440819 0.2123379915 -1.6797992576
H -3.0192228384 -0.0360676215 -1.788643855
H -3.1883241427 -0.6097027228 0.5531532671
H -1.9596557274 -1.6263054689 -0.1749865526
H -1.5408691425 0.8419456891 1.5686673843
H -1.3615800807 -0.8390053352 2.0538784371
H 0.7879891484 -0.1223509804 1.8814924509
H 1.3688682856 -1.9225683013 0.6166381364
H 0.088012013 -1.6810991543 -0.5569464765
H 2.7755815916 -1.0413458305 -1.0571680926
H 1.4040315907 -0.3608191614 -1.9290544711
H 2.8352979615 0.8356594214 0.4679213778
H 2.433666422 1.6313538398 -1.0604010203
H 0.7846187187 2.0615160986 0.9932209464
H 0.0482613811 1.5522655901 -0.5279208727
*
