! r2scan-3c def2/J RI DEFGRID2 scfconv6 printgap
%output
    printlevel normal
end
%cpcm
    smd true
    smdsolvent "water"
end
* xyz 0 1
C -1.820535055 1.1666733701 0.6586411276
C -1.443091702 0.0339435687 -0.2878583298
C -0.0410711711 -0.5224999727 -0.0034904009
C 1.0765780966 0.4617240077 -0.38915224
C 2.0348755385 0.7536410771 0.7587580475
O 0.1930116588 -1.7179429472 -0.7367945456
H -1.1311284759 2.0012950472 0.5641453208
H -2.8226728776 1.5227294697 0.435055733
H -1.7988409476 0.8204494404 1.6895658942
H -2.1696286389 -0.77545692 -0.1781251768
H -1.4816287206 0.3752523803 -1.3243404356
H 0.0304534309 -0.7485649994 1.0727298325
H 1.6244415019 0.0101410966 -1.2182983138
H 0.6423845951 1.3948652373 -0.7483383743
H 2.8177253015 1.4327497872 0.4305803416
H 1.5052596377 1.2128629826 1.5904358415
H 2.5001896702 -0.1649814597 1.1081986013
H -0.4775560941 -2.3750780722 -0.5072464114
*
