  15
  -30.4163147000000       0.250003968230749      !gc
 C          0.0338974235       -1.2113383878        0.0000416102
 C          1.4090849832       -1.2117799209        0.0000351946
 C          2.1096719525       -0.0019630052        0.0000081802
 C          1.4105455330        1.2062670880        0.0000091699
 C          0.0328920824        1.2086185350        0.0000165201
 C         -0.6543361896       -0.0003670428        0.0000207993
 N         -2.0886313294        0.0015085588       -0.0000083438
 O         -2.6523941453        1.0771816638        0.0000038856
 O         -2.6557866956       -1.0718252102       -0.0000493952
 O          3.4548602087       -0.0519544283       -0.0000468574
 H         -0.5262397964       -2.1335302065        0.0000589533
 H          1.9700784551       -2.1319092322        0.0000291895
 H          1.9542377178        2.1408458087       -0.0000024916
 H         -0.5254938617        2.1320200496        0.0000356975
 H          3.8324694049        0.8371798892       -0.0001059219
  15
  -30.4163146900000       0.250001322715432      !mtd6
 C          0.0221349073       -1.2088627064       -0.0003049350
 C          1.3997622407       -1.2187783874       -0.0002988382
 C          2.1095993368       -0.0168353582        0.0000294089
 C          1.4197921419        1.1991976023        0.0002808616
 C          0.0446811879        1.2109985059        0.0002049687
 C         -0.6543233810        0.0061775132       -0.0000776222
 N         -2.0885236985        0.0170333895       -0.0001411725
 O         -2.6461027932        1.0953797036       -0.0005118602
 O         -2.6619067728       -1.0535493289        0.0007185923
 O          3.4551595348        0.0213159615        0.0000616899
 H         -0.5444250515       -2.1272715736       -0.0005818552
 H          1.9350885643       -2.1581732229       -0.0006181445
 H          1.9890455294        2.1142415749        0.0006032868
 H         -0.5073045721        2.1380940609        0.0005026163
 H          3.8249845193       -0.8710896379       -0.0002249120
  15
  -30.4163146900000       0.250001322715432      !mtd6
 C          0.0213948168       -1.2088765765        0.0000396356
 C          1.3990195032       -1.2196496507       -0.0000028532
 C          2.1095912163       -0.0181428252       -0.0000282093
 C          1.4205443267        1.1983204565        0.0000410387
 C          0.0454245435        1.2109712452        0.0000609030
 C         -0.6542890972        0.0065908850        0.0000642175
 N         -2.0885674093        0.0183504857       -0.0000107616
 O         -2.6624793126       -1.0519521847       -0.0001397269
 O         -2.6455180406        1.0970497557        0.0000490351
 O          3.4551888868        0.0191719675       -0.0000507881
 H         -0.5457392850       -2.1269364853        0.0000307004
 H          1.9337578367       -2.1593655594        0.0000641174
 H          1.9903280918        2.1130154220       -0.0001256700
 H         -0.5059329517        2.1384311320       -0.0001405778
 H          3.8244596684       -0.8734960954        0.0004845757
  15
  -30.4163146600000       0.249993386338387      !hor
 C          0.0339133977       -1.2113599612       -0.0000199722
 C          1.4090785048       -1.2117769378        0.0000192784
 C          2.1096715987       -0.0019464437        0.0000167811
 C          1.4105489808        1.2062815879        0.0000120081
 C          0.0328763851        1.2085978057       -0.0000195691
 C         -0.6543356131       -0.0003701183       -0.0000853585
 N         -2.0886299055        0.0015176225       -0.0002791554
 O         -2.6557822542       -1.0718203362        0.0000915304
 O         -2.6524039453        1.0771865573        0.0001914938
 O          3.4548614645       -0.0519620880        0.0000218076
 H         -0.5261811085       -2.1335716124       -0.0000462626
 H          1.9701398883       -2.1318669817        0.0000321179
 H          1.9541894579        2.1408825423        0.0000169838
 H         -0.5255547104        2.1319772418       -0.0000487274
 H          3.8325338934        0.8371607674        0.0000019859
