  16
  -22.2882698400000       0.164319315703076      !mtd9
 C         -2.6892093631       -0.9672949944       -0.0012252917
 S         -1.8224513693        0.6280071863        0.0004892950
 C         -0.1094158423        0.1895499943        0.0004333852
 C          0.7950934902        1.2489063663       -0.0002227788
 C          2.1525023122        1.0016806408       -0.0005681645
 C          2.6240765092       -0.3023153567       -0.0003570305
 C          1.7244302045       -1.3526881545        0.0003045198
 C          0.3599935249       -1.1157137992        0.0007605325
 H         -2.4385253975       -1.5262784704       -0.8981454221
 H         -3.7471278161       -0.7235590441       -0.0032021233
 H         -2.4418591398       -1.5265263989        0.8964965866
 H          0.4169545282        2.2601002347       -0.0003369836
 H          2.8461773306        1.8293453068       -0.0009306038
 H          3.6859218134       -0.4967815588       -0.0007497813
 H          2.0815310858       -2.3723455383        0.0004438111
 H         -0.3190276641       -1.9534595654        0.0012858705
  16
  -22.2882698400000       0.164319315703076      !mtd5
 C         -2.6890263598       -0.9673559382        0.0003835901
 S         -1.8224441713        0.6280971354       -0.0003119232
 C         -0.1094525724        0.1895519021       -0.0002223161
 C          0.7950372987        1.2488489725       -0.0000298039
 C          2.1524719049        1.0016291419        0.0002339944
 C          2.6240463470       -0.3023255937        0.0003429450
 C          1.7243755868       -1.3527067409        0.0001261693
 C          0.3599701446       -1.1157476973       -0.0001793764
 H         -3.7468713641       -0.7234944602        0.0012870457
 H         -2.4392981161       -1.5264423955        0.8974457229
 H         -2.4408303175       -1.5264216919       -0.8971122632
 H          0.4170456218        2.2600953217       -0.0000841279
 H          2.8460139107        1.8293837772        0.0002769315
 H          3.6858601796       -0.4969018500        0.0005224852
 H          2.0815346420       -2.3723493349        0.0001405242
 H         -0.3190609748       -1.9534869393       -0.0003623957
  16
  -22.2882698000000       0.164312360575610      !mtd5
 C         -2.6362763287        1.1031988286       -0.0026905510
 S         -1.8521324642       -0.5341778379        0.0015746835
 C         -0.1189124848       -0.1837931329        0.0003001744
 C          0.4164329295        1.0958558758       -0.0016267778
 C          1.7911470244        1.2629674442       -0.0019124248
 C          2.6360417177        0.1680876488       -0.0003632593
 C          2.0985851787       -1.1101548954        0.0013644281
 C          0.7303507784       -1.2878801957        0.0016392130
 H         -3.7051967094        0.9137334257       -0.0023752526
 H         -2.3588825399        1.6468282295       -0.9012218969
 H         -2.3591667596        1.6510342928        0.8934068742
 H         -0.2190835931        1.9671728452       -0.0031437241
 H          2.1997982469        2.2630493719       -0.0029194842
 H          3.7064811950        0.3081153306       -0.0000560807
 H          2.7491713761       -1.9721399001        0.0026696454
 H          0.3012452538       -2.2785064584        0.0027481596
  16
  -22.2882697900000       0.164310621840360      !md3
 C         -2.6361578278        1.1034593101        0.0007212454
 S         -1.8522298427       -0.5342932448       -0.0009503530
 C         -0.1189152512       -0.1838449630       -0.0000509129
 C          0.4164385849        1.0957807319       -0.0005073858
 C          1.7911287906        1.2629804774       -0.0001000252
 C          2.6360421428        0.1681540804        0.0004375967
 C          2.0986591540       -1.1101352398        0.0008025492
 C          0.7304193610       -1.2879152762        0.0007570999
 H         -2.3578702793        1.6486130283        0.8980802072
 H         -3.7051127989        0.9141990972        0.0018274608
 H         -2.3599984118        1.6499104857       -0.8964823588
 H         -0.2190553239        1.9670875883       -0.0007551859
 H          2.1996534758        2.2631557164       -0.0002244144
 H          3.7063925417        0.3082489645        0.0004493369
 H          2.7491840381       -1.9720441955        0.0015426098
 H          0.3013375065       -2.2785667462        0.0012411299
  16
  -22.2882697800000       0.164308883122891      !mtd4
 C         -2.6361149331        1.1033912606       -0.0008695168
 S         -1.8521650790       -0.5342037569        0.0002637491
 C         -0.1188900320       -0.1838391028        0.0000740792
 C          0.4163098916        1.0958333232       -0.0009853664
 C          1.7910384710        1.2629597202       -0.0010783623
 C          2.6360166666        0.1680877497        0.0001690174
 C          2.0986429955       -1.1101857751        0.0010960524
 C          0.7304136076       -1.2879387006        0.0010391706
 H         -2.3572041415        1.6491978117       -0.8975808319
 H         -2.3603434482        1.6487230449        0.8970687436
 H         -3.7051369994        0.9142039386       -0.0027889931
 H         -0.2190610880        1.9669998966       -0.0013272876
 H          2.1997388130        2.2630483358       -0.0018815701
 H          3.7064065303        0.3082969272        0.0005078749
 H          2.7492509098       -1.9721499086        0.0021903139
 H          0.3011830797       -2.2785290461        0.0020352062
  16
  -22.2882697500000       0.164303667081496      !mtd11
 C         -2.6890651218       -0.9673079364       -0.0032449325
 S         -1.8224844827        0.6280440700        0.0017362962
 C         -0.1094112305        0.1895697005        0.0008150155
 C          0.7950652929        1.2488816244       -0.0005908371
 C          2.1524809661        1.0016464246       -0.0015294723
 C          2.6240645500       -0.3023214108       -0.0011652076
 C          1.7244060522       -1.3527102640        0.0006207541
 C          0.3599818062       -1.1157276797        0.0017467158
 H         -2.4439978475       -1.5272419162        0.8947030893
 H         -2.4361686091       -1.5256911745       -0.8999102314
 H         -3.7469274247       -0.7234109402       -0.0078538116
 H          0.4170404538        2.2601242522       -0.0010284613
 H          2.8460913258        1.8293947443       -0.0030633270
 H          3.6858825355       -0.4968579223       -0.0025857325
 H          2.0815028681       -2.3723526757        0.0009033312
 H         -0.3189387404       -1.9535196048        0.0035030063
  16
  -22.2852977200000       7.076146851049673E-003 !mtd1
 C         -2.4907713776       -0.1921439999       -1.0243877734
 S         -1.8537754703        0.2322923140        0.6285095906
 C         -0.1082338968        0.0734902280        0.2578643660
 C          0.5927202589        1.1673551675       -0.2214931996
 C          1.9361982102        1.0357785443       -0.5267055417
 C          2.5725428227       -0.1815338046       -0.3489407976
 C          1.8672977207       -1.2696166688        0.1378632582
 C          0.5235836350       -1.1444592436        0.4448286056
 H         -2.1152124351        0.5219101622       -1.7514856886
 H         -3.5724011056       -0.1347993711       -0.9644612284
 H         -2.1808785616       -1.2004853857       -1.2832240848
 H          0.0861801093        2.1121740156       -0.3501316909
 H          2.4867269391        1.8859607609       -0.9016472592
 H          3.6212265437       -0.2814979899       -0.5870199326
 H          2.3639971030       -2.2179074903        0.2810425556
 H         -0.0366309631       -1.9832134507        0.8299962815
  16
  -22.2852941800000       7.049689122440560E-003 !mtd8
 C         -2.4954339672       -0.2073260858       -1.0185148110
 S         -1.8530045868        0.2402863780        0.6261121948
 C         -0.1080831089        0.0756865597        0.2549064714
 C          0.5962155849        1.1686330260       -0.2215902461
 C          1.9402239388        1.0348853516       -0.5236516764
 C          2.5737657187       -0.1837868519       -0.3457887257
 C          1.8649201693       -1.2713963998        0.1369492017
 C          0.5207609769       -1.1440006109        0.4408833696
 H         -3.5759295368       -0.1297771345       -0.9610283099
 H         -2.2029955164       -1.2259309967       -1.2569713369
 H         -2.1068167795        0.4855247444       -1.7592562868
 H          0.0920080631        2.1146849892       -0.3500131532
 H          2.4931449304        1.8846965134       -0.8958889790
 H          3.6229877922       -0.2853918733       -0.5807008812
 H          2.3594138116       -2.2208674501        0.2799414800
 H         -0.0417897063       -1.9823204667        0.8236147587
