! r2scan-3c def2/J RI DEFGRID2 scfconv6 printgap
%output
    printlevel normal
end
* xyz 0 1
C -2.1264445692 -0.8075128698 0.3755257645
C -1.2398571167 -0.1927604632 -0.6901917209
S 0.0002400774 0.9635041127 -0.0010472069
C 1.2398360281 -0.1914312969 0.6909028553
C 2.126001481 -0.808105556 -0.3740337209
H -2.8782555543 -1.4387068707 -0.0925274531
H -1.5455265667 -1.4174580751 1.0637630958
H -2.6261405913 -0.0263744985 0.9433734666
H -1.8232790064 0.4202416996 -1.3756820951
H -0.7028809292 -0.9493067574 -1.2599761263
H 1.8228597113 0.4232725492 1.3752151212
H 0.7025759995 -0.9467908819 1.2620944844
H 2.6260076266 -0.0283563518 -0.9434436449
H 2.8774339739 -1.4385420878 0.0955177383
H 1.5450991349 -1.4191758544 -1.0612739778
*
