  17
        -22.48660500
 C         -2.9112064677        0.0000719147        0.0155910066
 C         -1.4115120683       -0.0001312498       -0.0072139655
 C         -0.6970375083       -1.1913851364       -0.0076475655
 C          0.6834831385       -1.1975317162       -0.0102152610
 C          1.3969436817        0.0000210052       -0.0092973952
 C          0.6833383013        1.1975340203       -0.0101962193
 C         -0.6971300807        1.1912319729       -0.0075969644
 N          2.7792294262        0.0001473448        0.0629933759
 H         -3.3065655900       -0.8877415216       -0.4731826306
 H         -3.2719986651        0.0062945884        1.0452299654
 H         -3.3063896154        0.8821831572       -0.4836508744
 H         -1.2302649912       -2.1318024196       -0.0104744778
 H          1.2222621494       -2.1348979161       -0.0128800523
 H          1.2220513322        2.1349311648       -0.0129246254
 H         -1.2305288914        2.1315528282       -0.0104122905
 H          3.2353653347        0.8453678253       -0.2413575323
 H          3.2352757723       -0.8456808036       -0.2398857366
