  17
  -22.4866050000000       8.344118935581643E-002 !md1
 C         -2.9112064677        0.0000719147        0.0155910066
 C         -1.4115120683       -0.0001312498       -0.0072139655
 C         -0.6970375083       -1.1913851364       -0.0076475655
 C          0.6834831385       -1.1975317162       -0.0102152610
 C          1.3969436817        0.0000210052       -0.0092973952
 C          0.6833383013        1.1975340203       -0.0101962193
 C         -0.6971300807        1.1912319729       -0.0075969644
 N          2.7792294262        0.0001473448        0.0629933759
 H         -3.3065655900       -0.8877415216       -0.4731826306
 H         -3.2719986651        0.0062945884        1.0452299654
 H         -3.3063896154        0.8821831572       -0.4836508744
 H         -1.2302649912       -2.1318024196       -0.0104744778
 H          1.2222621494       -2.1348979161       -0.0128800523
 H          1.2220513322        2.1349311648       -0.0129246254
 H         -1.2305288914        2.1315528282       -0.0104122905
 H          3.2353653347        0.8453678253       -0.2413575323
 H          3.2352757723       -0.8456808036       -0.2398857366
  17
  -22.4866049900000       8.344030639005369E-002 !input
 C         -2.9108235193       -0.0000777387       -0.0487695599
 C         -1.4114923883       -0.0000457701       -0.0085782728
 C         -0.6970930865       -1.1913328317       -0.0000081241
 C          0.6832855782       -1.1975141096        0.0180356020
 C          1.3967444295        0.0000405230        0.0250080219
 C          0.6832109266        1.1975532037        0.0180740383
 C         -0.6971656284        1.1912872000        0.0000317787
 N          2.7797517085        0.0000807200       -0.0319857286
 H         -3.2597718503        0.0002808830       -1.0825099783
 H         -3.3117450159       -0.8852299594        0.4403640449
 H         -3.3117958893        0.8847106688        0.4409847651
 H         -1.2303843225       -2.1317324221       -0.0033769949
 H          1.2219821952       -2.1348890609        0.0268261889
 H          1.2218494468        2.1349607479        0.0269326590
 H         -1.2305189714        2.1316515027       -0.0032669990
 H          3.2324556578       -0.8454455630        0.2766684273
 H          3.2324120051        0.8456382818        0.2766744121
  17
  -22.4866048200000       8.342529740280882E-002 !md1
 C         -2.9111978032       -0.0015783331        0.0154923882
 C         -1.4114992567        0.0009857708       -0.0070839340
 C         -0.6972110986       -1.1907274942       -0.0075892225
 C          0.6830673801       -1.1973343029       -0.0102029555
 C          1.3969368442        0.0001826389       -0.0093059242
 C          0.6837417374        1.1977323672       -0.0102340935
 C         -0.6969579726        1.1918955078       -0.0075590939
 N          2.7792345705       -0.0003664815        0.0629903149
 H         -3.2722028197       -0.0721084289        1.0426252140
 H         -3.3072773863        0.9138581414       -0.4183437366
 H         -3.3054884507       -0.8520636891       -0.5368717381
 H         -1.2311569508       -2.1307561925       -0.0104391628
 H          1.2216800261       -2.1347653176       -0.0130084130
 H          1.2226125598        2.1350580057       -0.0129906900
 H         -1.2296772562        2.1326264167       -0.0102874966
 H          3.2355625295        0.8452518185       -0.2399789004
 H          3.2350731540       -0.8457855207       -0.2413153621
  17
  -22.4866047500000       8.341911801643716E-002 !mtd7
 C         -2.9108529375       -0.0017224781       -0.0478685280
 C         -1.4114778854        0.0011026680       -0.0089735403
 C         -0.6972856723       -1.1906750947       -0.0005328973
 C          0.6828526960       -1.1973323653        0.0177474577
 C          1.3967157101        0.0001906099        0.0250988107
 C          0.6836555932        1.1977555859        0.0177852595
 C         -0.6969580317        1.1919512588       -0.0005595835
 N          2.7797795564       -0.0003547865       -0.0314217766
 H         -3.2606167870       -0.0803956098       -1.0782815999
 H         -3.3111278307       -0.8479605952        0.5067692218
 H         -3.3116417730        0.9169909815        0.3745272409
 H         -1.2313098719       -2.1306565721       -0.0038357483
 H          1.2214397093       -2.1347719945        0.0264017140
 H          1.2224481927        2.1350607623        0.0268990252
 H         -1.2295627622        2.1327420233       -0.0032787588
 H          3.2325505359        0.8448778993        0.2779251256
 H          3.2321175159       -0.8460930649        0.2774000081
  17
  -22.4866047500000       8.341911801643716E-002 !md1
 C         -2.9108496520        0.0016014643       -0.0481084620
 C         -1.4114909810       -0.0012289182       -0.0089313830
 C         -0.6968904678       -1.1920340514       -0.0004390146
 C          0.6837086919       -1.1977123211        0.0179023241
 C          1.3967473180       -0.0001011152        0.0250860348
 C          0.6827960800        1.1973557043        0.0179114571
 C         -0.6973571238        1.1905872331       -0.0003005378
 N          2.7797538195        0.0005335578       -0.0316281723
 H         -3.3112724778        0.8465736176        0.5083671033
 H         -3.2604744418        0.0826107066       -1.0784067437
 H         -3.3116662236       -0.9180730372        0.3721641085
 H         -1.2294679859       -2.1328268716       -0.0036543116
 H          1.2226262491       -2.1349532882        0.0268002897
 H          1.2212747016        2.1348917503        0.0265876470
 H         -1.2314654710        2.1305286434       -0.0034428573
 H          3.2319538171        0.8465612676        0.2762906377
 H          3.2329749067       -0.8444709213        0.2776425470
  17
  -22.4866047200000       8.341646984784146E-002 !gc
 C         -2.9112062143        0.0016801680        0.0151641375
 C         -1.4114977118       -0.0012461013       -0.0068665473
 C         -0.6968212133       -1.1920589260       -0.0073799756
 C          0.6838787791       -1.1977109957       -0.0102479519
 C          1.3969373633       -0.0000745316       -0.0094031207
 C          0.6829316486        1.1973582810       -0.0101516462
 C         -0.6973425149        1.1905610862       -0.0073433887
 N          2.7792301881        0.0005414360        0.0629016425
 H         -3.3072570948       -0.9191900462       -0.4069710193
 H         -3.2724473433        0.0856745142        1.0411876883
 H         -3.3052741650        0.8450522309       -0.5482653514
 H         -1.2294318323       -2.1328535438       -0.0103579551
 H          1.2229141860       -2.1349256550       -0.0130051919
 H          1.2213769348        2.1349160954       -0.0129842486
 H         -1.2313977421        2.1305266701       -0.0105112688
 H          3.2356400338       -0.8449751450       -0.2402675764
 H          3.2350596841        0.8460188529       -0.2412340527
  17
  -22.4866046800000       8.341293908746455E-002 !gc
 C         -2.9108262768        0.0014221187       -0.0473219167
 C         -1.4114553316       -0.0010769828       -0.0091708846
 C         -0.6969064412       -1.1919537917       -0.0009063720
 C          0.6836772508       -1.1977400534        0.0174610672
 C          1.3966402913       -0.0001105706        0.0248670376
 C          0.6828464077        1.1973973926        0.0175037899
 C         -0.6973253515        1.1906902522       -0.0008072604
 N          2.7798640802        0.0005246715       -0.0308431846
 H         -3.3109369333        0.8508200695        0.5025262792
 H         -3.2610251845        0.0739086239       -1.0780662490
 H         -3.3113828504       -0.9148047989        0.3806849405
 H         -1.2296179284       -2.1326851547       -0.0040085649
 H          1.2225361714       -2.1350018431        0.0267322336
 H          1.2213302748        2.1348808496        0.0266539832
 H         -1.2313382345        2.1306794170       -0.0040725787
 H          3.2321730639       -0.8448096885        0.2791317292
 H          3.2313711023        0.8460667877        0.2796729381
  17
  -22.4866045900000       8.340499542294101E-002 !md2
 C         -2.9112168647        0.0021200061        0.0150729121
 C         -1.4114946896       -0.0015574459       -0.0068091361
 C         -0.6967968198       -1.1922350386       -0.0073714156
 C          0.6839954461       -1.1977768189       -0.0101962366
 C          1.3969467746       -0.0001498012       -0.0093693796
 C          0.6828151870        1.1972820181       -0.0100887735
 C         -0.6973739119        1.1903858972       -0.0073248351
 N          2.7792474533        0.0007064802        0.0627969138
 H         -3.3048746982        0.8333658028       -0.5664759842
 H         -3.3074244044       -0.9273768439       -0.3874227310
 H         -3.2727301188        0.1086224706        1.0388918701
 H         -1.2291591877       -2.1331635575       -0.0102459131
 H          1.2229837926       -2.1350097568       -0.0130358303
 H          1.2212883803        2.1348344046       -0.0126168991
 H         -1.2316693826        2.1302139251       -0.0098717525
 H          3.2347685718        0.8463629538       -0.2413153885
 H          3.2358195357       -0.8446536594       -0.2405487079
  17
  -22.4866045400000       8.340058260283553E-002 !mtd14
 C         -2.9107720138        0.0017167030       -0.0486335133
 C         -1.4114762985       -0.0013198939       -0.0087416206
 C         -0.6968857220       -1.1921054949       -0.0001095237
 C          0.6837499688       -1.1977506892        0.0180344008
 C          1.3967276881       -0.0001431082        0.0249793167
 C          0.6827370025        1.1973205530        0.0180676559
 C         -0.6973956757        1.1905377929        0.0000103716
 N          2.7797315926        0.0005566093       -0.0319396539
 H         -3.3117688820       -0.9209813239        0.3647334793
 H         -3.3114354980        0.8425728694        0.5139063803
 H         -3.2599423075        0.0904205699       -1.0784027915
 H         -1.2294610788       -2.1329071510       -0.0034779700
 H          1.2227220990       -2.1349367694        0.0270999155
 H          1.2212112098        2.1348178814        0.0272031990
 H         -1.2315835640        2.1304075428       -0.0029847451
 H          3.2331950285       -0.8437950503        0.2785855605
 H          3.2316036951        0.8474509153        0.2742144621
  17
  -22.4866037600000       8.333177283281563E-002 !md1
 C         -2.9108883084        0.0037115097       -0.0467463604
 C         -1.4114640621       -0.0026672526       -0.0098959110
 C         -0.6966392501       -1.1928883718       -0.0011763144
 C          0.6842503990       -1.1979554716        0.0176349700
 C          1.3967401297       -0.0002751392        0.0251872309
 C          0.6822573036        1.1971279006        0.0176830742
 C         -0.6975791008        1.1897315810       -0.0009902727
 N          2.7797736502        0.0011278037       -0.0309720870
 H         -3.3112186729       -0.9534171572        0.2792714361
 H         -3.3099689715        0.7879846392        0.5938501094
 H         -3.2624335644        0.1906831880       -1.0623398582
 H         -1.2283102052       -2.1342131675       -0.0046922869
 H          1.2233848625       -2.1350671757        0.0264666896
 H          1.2204986565        2.1347760580        0.0263940706
 H         -1.2325964760        2.1291469603       -0.0046139837
 H          3.2315688980        0.8468718870        0.2783890732
 H          3.2331251147       -0.8441226237        0.2774752373
  17
  -22.4866033500000       8.329562636108404E-002 !mtd10
 C         -2.9112524513       -0.0042886445        0.0141141051
 C         -1.4115403222        0.0028361948       -0.0058689530
 C         -0.6975333179       -1.1896140878       -0.0068175732
 C          0.6823805485       -1.1969182049       -0.0101691570
 C          1.3969852443        0.0004851749       -0.0096055392
 C          0.6844522868        1.1980829654       -0.0102112603
 C         -0.6966063363        1.1929508420       -0.0068930854
 N          2.7792162458       -0.0011835932        0.0626545470
 H         -3.2739056925       -0.2147534264        1.0211119783
 H         -3.3082040472        0.9599192342       -0.2945448093
 H         -3.3030158875       -0.7737699009       -0.6486725074
 H         -1.2324311324       -2.1290514305       -0.0098920265
 H          1.2207348502       -2.1345221155       -0.0132444914
 H          1.2234454187        2.1353017100       -0.0127933934
 H         -1.2282793840        2.1342530766       -0.0093651905
 H          3.2344576888       -0.8471477198       -0.2410828651
 H          3.2365088774        0.8441018357       -0.2397515624
  17
  -22.4865953400000       8.259258466346441E-002 !mtd13
 C         -2.9111491419       -0.0065735132       -0.0333851420
 C         -1.4112870486        0.0044478989       -0.0206810704
 C         -0.6977161395       -1.1886686054       -0.0079545522
 C          0.6816616644       -1.1967797486        0.0163727654
 C          1.3967113176        0.0005974581        0.0269318546
 C          0.6848613050        1.1983173468        0.0163377587
 C         -0.6963041466        1.1939585309       -0.0081141597
 N          2.7798758145       -0.0017322311       -0.0261195255
 H         -3.3050690610        0.9928888884       -0.2007927151
 H         -3.2835771087       -0.6644401772       -0.8173056948
 H         -3.2965810639       -0.3724217576        0.9188372225
 H         -1.2338435448       -2.1274312660       -0.0151512873
 H          1.2196486906       -2.1345804336        0.0250343749
 H          1.2242961859        2.1352498911        0.0250887920
 H         -1.2268789500        2.1358884854       -0.0151774334
 H          3.2303712838       -0.8476443800        0.2846392502
 H          3.2330634210        0.8434116140        0.2828464624
