  17
        -22.49333800
 C         -2.5165294840        1.0317120376       -0.0048926976
 C         -1.2045011565        0.3121557734        0.0079441960
 C         -0.0001310480        1.0044470025       -0.0000878417
 C          1.2044028064        0.3122942917       -0.0081301681
 C          1.1342702152       -1.0771788763       -0.0089701894
 N          0.0000820707       -1.7530571551        0.0000200936
 C         -1.1340798479       -1.0774059539        0.0089410817
 C          2.5164610834        1.0318027014        0.0050633298
 H         -2.7599873917        1.3430028802       -1.0212672686
 H         -3.3147848855        0.3861785393        0.3530843822
 H         -2.4735034992        1.9233469563        0.6174642639
 H         -0.0000554782        2.0868150316       -0.0004510029
 H          2.0352783102       -1.6776722657       -0.0172241674
 H         -2.0351039657       -1.6778941205        0.0176024647
 H          2.7641141933        1.3343505542        1.0230853632
 H          3.3132267444        0.3892627642       -0.3615290591
 H          2.4709556885        1.9286309327       -0.6094677430
