  14
        -17.70717383
 C         -2.8419833926       -0.4268572293        0.1529013702
 C         -1.4347853693       -0.2754338116       -0.4100206003
 C         -0.6541463343        0.8178457846        0.3166598916
 C          0.7509016836        0.9968680445       -0.2321887573
 Cl         1.7501520882       -0.4530802408        0.0690933555
 H         -2.8049485127       -0.6891455134        1.2077907019
 H         -3.3979887029        0.5028348017        0.0505852897
 H         -3.3810490888       -1.2090523232       -0.3756351469
 H         -1.4915303146       -0.0311120545       -1.4733420479
 H         -0.8997586868       -1.2214706457       -0.3128642267
 H         -1.1772573809        1.7720562067        0.2104919397
 H         -0.5995957229        0.5811612435        1.3811266104
 H          1.2636120247        1.8285923025        0.2508475387
 H          0.7393340401        1.1467031696       -1.3119448535
  14
        -17.70700771
 C         -3.1135572240       -0.4466970845        0.1529651875
 C         -1.9180215688        0.2561590739       -0.4781210747
 C         -0.6036770255       -0.2022601758        0.1537397775
 C          0.5828913979        0.5031031095       -0.4794716175
 Cl         2.1120742717       -0.0403332683        0.2658775658
 H         -3.0362694761       -1.5234149166        0.0212852215
 H         -3.1616406233       -0.2349161178        1.2185708318
 H         -4.0396150233       -0.1100951548       -0.3063261679
 H         -2.0224189261        1.3360282999       -0.3529783122
 H         -1.8965131589        0.0469611283       -1.5498021930
 H         -0.6202352355        0.0078937754        1.2249341667
 H         -0.4934762728       -1.2809356021        0.0262429405
 H          0.5291802744        1.5821224313       -0.3335840943
 H          0.6568331660        0.2805955952       -1.5440809065
  14
        -17.70643431
 C         -2.6570559534       -0.8316651726       -0.1039492023
 C         -2.0188878850        0.5482010107       -0.2155233376
 C         -0.6010203173        0.6062340231        0.3577673929
 C          0.3822495986       -0.2176261176       -0.4569813094
 Cl         2.0393512534       -0.0160261346        0.1789757393
 H         -3.6931667838       -0.7928235267       -0.4316894922
 H         -2.1355033510       -1.5578101361       -0.7218822332
 H         -2.6379976083       -1.1772623314        0.9270860779
 H         -2.6343063778        1.2669838671        0.3291349922
 H         -1.9984605306        0.8571410476       -1.2628284262
 H         -0.2634323791        1.6447302799        0.3689387565
 H         -0.6076264258        0.2457195883        1.3882543776
 H          0.4040102052        0.1066671380       -1.4976856908
 H          0.1616777741       -1.2826077121       -0.4053942986
  14
        -17.70639813
 C         -2.3733479768       -0.4003473990       -0.5958421129
 C         -1.5008590360       -0.2563108829        0.6455231524
 C         -0.5828517722        0.9660573726        0.5972107497
 C          0.5210773126        0.8618302504       -0.4423356699
 Cl         1.6428042420       -0.4752049636       -0.0585061908
 H         -2.9565377554        0.5034754064       -0.7612476594
 H         -1.7717248820       -0.5903148073       -1.4808559414
 H         -3.0609153969       -1.2337631861       -0.4740932461
 H         -0.8931916280       -1.1537363829        0.7716615037
 H         -2.1451064818       -0.1657112337        1.5224993818
 H         -1.1733236737        1.8564369675        0.3652738538
 H         -0.1275211906        1.1105694384        1.5790977752
 H          1.1227939000        1.7703424278       -0.4660094613
 H          0.1242240762        0.6607189884       -1.4360301128
  14
        -17.70494905
 C         -1.8401107864       -0.9678490752       -0.0097521500
 C         -1.8074785438        0.5287628896       -0.2929249882
 C         -0.5665482027        1.2342534501        0.2577606007
 C          0.7332123865        0.8561415162       -0.4395644829
 Cl         1.4411123872       -0.6542641453        0.2028300934
 H         -2.7831879284       -1.3916147480       -0.3478907886
 H         -1.0326881668       -1.4816272642       -0.5226185712
 H         -1.7421562387       -1.1552149912        1.0570774551
 H         -2.6867858328        0.9935452436        0.1594678452
 H         -1.8650298466        0.6974825633       -1.3709942696
 H         -0.6988491062        2.3122023853        0.1301074096
 H         -0.4748110718        1.0360160903        1.3271773516
 H          1.4928772001        1.6225464081       -0.2856077497
 H          0.5810213768        0.7020715737       -1.5077999061
  14
        -17.70335945
 C         -2.9884078806       -0.2993058314        0.3915711364
 C         -1.9404378322        0.1919729301       -0.6001878276
 C         -0.5522767775       -0.4172857354       -0.3293922444
 C          0.4864464301        0.6644149805       -0.0840869848
 Cl         2.0868871657       -0.0598114532        0.2399299239
 H         -3.9548749627        0.1515349120        0.1784751659
 H         -3.0941620353       -1.3799474187        0.3314069954
 H         -2.7049294306       -0.0365151132        1.4081521626
 H         -1.8786184437        1.2805625237       -0.5394915284
 H         -2.2627454890       -0.0569416396       -1.6119370611
 H         -0.5978033974       -1.0654924703        0.5471620914
 H         -0.2321316777       -1.0303950450       -1.1727742608
 H          0.2338234897        1.2669082599        0.7885550249
 H          0.6057821318        1.3082278146       -0.9556836140
  14
        -17.70269842
 C         -2.6884647555       -0.4893783284        0.5156196016
 C         -1.9945062074        0.3772469487       -0.5444500649
 C         -0.5307545951       -0.0089828156       -0.7729453386
 C          0.3401341886        0.4010352646        0.4031223619
 Cl         2.0320943323       -0.1058277185        0.1390137497
 H         -3.4863397002       -1.0805499436        0.0741206362
 H         -1.9869872735       -1.1793205022        0.9770438335
 H         -3.1228497715        0.1207731358        1.3027580985
 H         -2.0360829464        1.4288182980       -0.2552918097
 H         -2.5217166264        0.2841876629       -1.4945594823
 H         -0.4549454622       -1.0869595317       -0.9269374397
 H         -0.1604509542        0.4843191206       -1.6738995524
 H          0.0159195924       -0.0686204731        1.3310551687
 H          0.3521887055        1.4840752620        0.5265816661
