  14
  -17.7071738300000       6.898494944680118E-002 !mtd13
 C         -2.8419833926       -0.4268572293        0.1529013702
 C         -1.4347853693       -0.2754338116       -0.4100206003
 C         -0.6541463343        0.8178457846        0.3166598916
 C          0.7509016836        0.9968680445       -0.2321887573
 Cl         1.7501520882       -0.4530802408        0.0690933555
 H         -2.8049485127       -0.6891455134        1.2077907019
 H         -3.3979887029        0.5028348017        0.0505852897
 H         -3.3810490888       -1.2090523232       -0.3756351469
 H         -1.4915303146       -0.0311120545       -1.4733420479
 H         -0.8997586868       -1.2214706457       -0.3128642267
 H         -1.1772573809        1.7720562067        0.2104919397
 H         -0.5995957229        0.5811612435        1.3811266104
 H          1.2636120247        1.8285923025        0.2508475387
 H          0.7393340401        1.1467031696       -1.3119448535
  14
  -17.7071738200000       6.898421945568606E-002 !mtd9
 C         -2.8466347760       -0.4145708837       -0.0931897579
 C         -1.4198379878       -0.3164980893        0.4309621768
 C         -0.6634817182        0.8430437149       -0.2139882049
 C          0.7601993225        0.9713601526        0.3001158344
 Cl         1.7460051339       -0.4412977029       -0.1731148788
 H         -3.3962782765        0.5003336779        0.1181734850
 H         -2.8478444387       -0.5739512331       -1.1690763513
 H         -3.3682083570       -1.2445639896        0.3767109228
 H         -0.8909695959       -1.2481141630        0.2233394077
 H         -1.4378620430       -0.1764591995        1.5143505704
 H         -0.6464706528        0.7099652317       -1.2975482280
 H         -1.1812300321        1.7816418660        0.0016393305
 H          0.7864703042        1.0173974837        1.3889867204
 H          1.2568342159        1.8465016367       -0.1187960025
  14
  -17.7071738100000       6.898348947203627E-002 !gc
 C         -2.8457511958       -0.4154314403       -0.0939332555
 C         -1.4199538117       -0.3151319358        0.4323125899
 C         -0.6632733272        0.8433555675       -0.2142756608
 C          0.7603369199        0.9716205489        0.2997625337
 Cl         1.7455349537       -0.4417048304       -0.1730631282
 H         -3.3676672845       -1.2446732154        0.3769010302
 H         -3.3963710032        0.4995311113        0.1145025297
 H         -2.8454553682       -0.5771259161       -1.1694910219
 H         -0.8899754714       -1.2467801749        0.2277517729
 H         -1.4398056380       -0.1725153928        1.5153202810
 H         -0.6463360955        0.7088423337       -1.2976535516
 H         -1.1805923427        1.7824067257        0.0001322049
 H          0.7866658307        1.0182419037        1.3886204905
 H          1.2572448065        1.8463001573       -0.1197209348
  14
  -17.7071738100000       6.898348947203627E-002 !mtd12
 C         -2.8419724854       -0.4266022499        0.1526221573
 C         -1.4344236896       -0.2759426047       -0.4093919274
 C         -0.6541828059        0.8180610870        0.3166570982
 C          0.7509354140        0.9970965192       -0.2319364367
 Cl         1.7500013134       -0.4531649656        0.0688492796
 H         -3.3808542830       -1.2088675846       -0.3760175533
 H         -2.8057535523       -0.6883740147        1.2077236366
 H         -3.3975937829        0.5032301815        0.0494628320
 H         -1.4903091544       -0.0329270917       -1.4731319187
 H         -0.8996524719       -1.2220173121       -0.3105791453
 H         -1.1775345206        1.7720622164        0.2098251783
 H         -0.5996851177        0.5821266565        1.3812725032
 H          1.2636007714        1.8286052174        0.2515798213
 H          0.7394958913        1.1474453547       -1.3116321962
  14
  -17.7071738100000       6.898348947203627E-002 !mtd6
 C         -2.8461788861       -0.4153558089       -0.0940021663
 C         -1.4204473453       -0.3150600121        0.4324186527
 C         -0.6634550646        0.8431137317       -0.2143852301
 C          0.7601261115        0.9713636950        0.2998210729
 Cl         1.7460613424       -0.4415489771       -0.1730649741
 H         -2.8457360490       -0.5782165089       -1.1693755627
 H         -3.3685285594       -1.2438771667        0.3775697091
 H         -3.3965256091        0.5000050924        0.1133702782
 H         -0.8905318001       -1.2468007566        0.2282087339
 H         -1.4404243747       -0.1721794965        1.5153792999
 H         -0.6463690717        0.7082427159       -1.2977348149
 H         -1.1808327830        1.7822324259       -0.0003213946
 H          0.7865395575        1.0174101179        1.3886477391
 H          1.2572563415        1.8461133688       -0.1191508730
  14
  -17.7071737800000       6.898129956769358E-002 !mtd3
 C         -2.8413359170       -0.4277391523        0.1536775521
 C         -1.4352101416       -0.2741076316       -0.4113562605
 C         -0.6540859261        0.8181556758        0.3162739739
 C          0.7510993798        0.9968398103       -0.2323873428
 Cl         1.7499363302       -0.4533407733        0.0695312105
 H         -3.3975925442        0.5022676692        0.0557814837
 H         -3.3812927044       -1.2079747719       -0.3767942362
 H         -2.8022408764       -0.6939057875        1.2075463557
 H         -1.4938889003       -0.0276742441       -1.4741081584
 H         -0.8994090557       -1.2199805139       -0.3169202355
 H         -1.1767536942        1.7726775488        0.2109190288
 H         -0.5996663063        0.5805867347        1.3805395013
 H          1.2637946661        1.8286167482        0.2505336591
 H          0.7397266691        1.1464674529       -1.3122105307
  14
  -17.7070077100000       5.786432405271574E-002 !mtd12
 C         -3.1135572240       -0.4466970845        0.1529651875
 C         -1.9180215688        0.2561590739       -0.4781210747
 C         -0.6036770255       -0.2022601758        0.1537397775
 C          0.5828913979        0.5031031095       -0.4794716175
 Cl         2.1120742717       -0.0403332683        0.2658775658
 H         -3.0362694761       -1.5234149166        0.0212852215
 H         -3.1616406233       -0.2349161178        1.2185708318
 H         -4.0396150233       -0.1100951548       -0.3063261679
 H         -2.0224189261        1.3360282999       -0.3529783122
 H         -1.8965131589        0.0469611283       -1.5498021930
 H         -0.6202352355        0.0078937754        1.2249341667
 H         -0.4934762728       -1.2809356021        0.0262429405
 H          0.5291802744        1.5821224313       -0.3335840943
 H          0.6568331660        0.2805955952       -1.5440809065
  14
  -17.7070076800000       5.786248713006222E-002 !mtd7
 C         -3.1133196391       -0.4471582842        0.1525662548
 C         -1.9180041091        0.2574123944       -0.4769699372
 C         -0.6035009608       -0.2031964700        0.1529318844
 C          0.5830109452        0.5030900419       -0.4795194721
 Cl         2.1118582633       -0.0402563673        0.2659333843
 H         -4.0393821418       -0.1102441107       -0.3065932275
 H         -3.0354595170       -1.5236249128        0.0190664446
 H         -3.1620248814       -0.2371665859        1.2185135645
 H         -2.0222397105        1.3368823462       -0.3484703021
 H         -1.8969755415        0.0514333301       -1.5492613420
 H         -0.6191912194        0.0046191435        1.2246512561
 H         -0.4939130566       -1.2816948042        0.0228909367
 H          0.5288373457        1.5819456387       -0.3330992705
 H          0.6572294731        0.2812582097       -1.5441660904
  14
  -17.7070075900000       5.785697671175914E-002 !gc
 C         -3.1132743585       -0.4477493388        0.1519765056
 C         -1.9179397616        0.2575824092       -0.4767336109
 C         -0.6036736716       -0.2020394655        0.1542860396
 C          0.5831834629        0.5018510067       -0.4803053399
 Cl         2.1118206668       -0.0400340518        0.2658972548
 H         -3.1628683352       -0.2377295752        1.2178204073
 H         -4.0392259783       -0.1114854191       -0.3077970361
 H         -3.0345473358       -1.5241849611        0.0186096120
 H         -2.0229197988        1.3370839880       -0.3483535206
 H         -1.8960305896        0.0515360108       -1.5490676429
 H         -0.6188491447        0.0087179458        1.2253991271
 H         -0.4946110235       -1.2808827108        0.0271458667
 H          0.5292575261        1.5812679397       -0.3369096495
 H          0.6566937712        0.2772600816       -1.5446048449
  14
  -17.7064343100000       3.154238218430210E-002 !mtd6
 C         -2.6570559534       -0.8316651726       -0.1039492023
 C         -2.0188878850        0.5482010107       -0.2155233376
 C         -0.6010203173        0.6062340231        0.3577673929
 C          0.3822495986       -0.2176261176       -0.4569813094
 Cl         2.0393512534       -0.0160261346        0.1789757393
 H         -3.6931667838       -0.7928235267       -0.4316894922
 H         -2.1355033510       -1.5578101361       -0.7218822332
 H         -2.6379976083       -1.1772623314        0.9270860779
 H         -2.6343063778        1.2669838671        0.3291349922
 H         -1.9984605306        0.8571410476       -1.2628284262
 H         -0.2634323791        1.6447302799        0.3689387565
 H         -0.6076264258        0.2457195883        1.3882543776
 H          0.4040102052        0.1066671380       -1.4976856908
 H          0.1616777741       -1.2826077121       -0.4053942986
  14
  -17.7064342900000       3.154171463170718E-002 !mtd8
 C         -2.6569693900       -0.8317120033       -0.1040045388
 C         -2.0190352895        0.5482965744       -0.2153698082
 C         -0.6011146155        0.6062293153        0.3576619934
 C          0.3823144831       -0.2176635351       -0.4569203400
 Cl         2.0393857040       -0.0160222049        0.1789543333
 H         -2.6359429544       -1.1787554943        0.9265133374
 H         -3.6935842957       -0.7925235968       -0.4297550835
 H         -2.1366433848       -1.5570595822       -0.7237746815
 H         -2.6346137535        1.2666578637        0.3297234493
 H         -1.9987989967        0.8577554142       -1.2625597350
 H         -0.2635168578        1.6447510841        0.3686450452
 H         -0.6075257764        0.2459192015        1.3882109556
 H          0.4039245123        0.1065341128       -1.4977418640
 H          0.1617597803       -1.2827577596       -0.4052150833
  14
  -17.7064342900000       3.154171463170718E-002 !mtd1
 C         -2.7030228102       -0.3897078867        0.5513115326
 C         -1.9906682050        0.2742958070       -0.6214320388
 C         -0.5233096837       -0.1410834588       -0.7505157739
 C          0.3216801693        0.3647975486        0.4068477822
 Cl         2.0418497130       -0.0388558087        0.1450429469
 H         -2.6054644461       -1.4712986533        0.4927397771
 H         -2.2927315280       -0.0563886864        1.5008313104
 H         -3.7615293910       -0.1412414304        0.5360215760
 H         -2.0514785610        1.3598085655       -0.5181527084
 H         -2.5029755409        0.0010933389       -1.5460610170
 H         -0.4538022303       -1.2294972060       -0.7995487274
 H         -0.1195587569        0.2620538293       -1.6816475026
 H          0.0380816433       -0.0983758445        1.3505118588
 H          0.2639910119        1.4499841372        0.4944611549
  14
  -17.7064342900000       3.154171463170718E-002 !mtd5
 C         -2.6570514467       -0.8316852676       -0.1044872363
 C         -2.0190261342        0.5484103128       -0.2148954120
 C         -0.6010536923        0.6060278153        0.3581273629
 C          0.3824589650       -0.2165804979       -0.4577102216
 Cl         2.0393263512       -0.0164510523        0.1791041364
 H         -2.1362597235       -1.5568751237       -0.7240383237
 H         -2.6367883048       -1.1789661728        0.9260449891
 H         -3.6934089060       -0.7924416564       -0.4310358340
 H         -2.6344232101        1.2664223432        0.3306848479
 H         -1.9988369487        0.8586053621       -1.2618068777
 H         -0.2636481775        1.6446197177        0.3705432135
 H         -0.6075084082        0.2442476006        1.3882179374
 H          0.4047139197        0.1093721080       -1.4978751982
 H          0.1617267437       -1.2815573395       -0.4079916686
  14
  -17.7064342800000       3.154138086064839E-002 !mtd7
 C         -2.7022788006       -0.3905465567        0.5513033711
 C         -1.9906906269        0.2750517525       -0.6210133400
 C         -0.5232162719       -0.1395847023       -0.7511755633
 C          0.3213069014        0.3636193398        0.4077393603
 Cl         2.0416543019       -0.0389006965        0.1447724391
 H         -3.7610261308       -0.1430688760        0.5361095756
 H         -2.6036089627       -1.4720842190        0.4921005193
 H         -2.2923933439       -0.0572241248        1.5010137572
 H         -2.0521005732        1.3604650862       -0.5165972556
 H         -2.5031263957        0.0024577010       -1.5457641024
 H         -0.4533642996       -1.2278829370       -0.8032207857
 H         -0.1197188569        0.2662244215       -1.6813366277
 H          0.0381970737       -0.1024950898        1.3500994604
 H          0.2632832455        1.4484909198        0.4986118167
  14
  -17.7064342500000       3.154037956878203E-002 !mtd12
 C         -2.7039035846       -0.3863885078        0.5519379395
 C         -1.9900049883        0.2714199155       -0.6233645568
 C         -0.5230021490       -0.1461398266       -0.7492651229
 C          0.3215485621        0.3667682335        0.4053769144
 Cl         2.0418875231       -0.0379162556        0.1456671068
 H         -2.2914435253       -0.0519301376        1.5001389571
 H         -3.7613922981       -0.1336024450        0.5367585794
 H         -2.6107278159       -1.4685830216        0.4964764775
 H         -2.0497743445        1.3575160333       -0.5253957868
 H         -2.5018497539       -0.0057469508       -1.5470738001
 H         -0.4544406004       -1.2349291430       -0.7914375325
 H         -0.1185559158        0.2508155381       -1.6827508798
 H          0.0384170836       -0.0913772539        1.3516716976
 H          0.2634655005        1.4524132094        0.4870021447
  14
  -17.7063981300000       3.035759150863595E-002 !mtd2
 C         -2.3733479768       -0.4003473990       -0.5958421129
 C         -1.5008590360       -0.2563108829        0.6455231524
 C         -0.5828517722        0.9660573726        0.5972107497
 C          0.5210773126        0.8618302504       -0.4423356699
 Cl         1.6428042420       -0.4752049636       -0.0585061908
 H         -2.9565377554        0.5034754064       -0.7612476594
 H         -1.7717248820       -0.5903148073       -1.4808559414
 H         -3.0609153969       -1.2337631861       -0.4740932461
 H         -0.8931916280       -1.1537363829        0.7716615037
 H         -2.1451064818       -0.1657112337        1.5224993818
 H         -1.1733236737        1.8564369675        0.3652738538
 H         -0.1275211906        1.1105694384        1.5790977752
 H          1.1227939000        1.7703424278       -0.4660094613
 H          0.1242240762        0.6607189884       -1.4360301128
  14
  -17.7063981200000       3.035727026784171E-002 !mtd3
 C         -2.3732236330       -0.4005326887       -0.5958598466
 C         -1.5008153963       -0.2560971385        0.6455690297
 C         -0.5828438747        0.9662863558        0.5971942953
 C          0.5210848458        0.8618718879       -0.4423681351
 Cl         1.6427204730       -0.4753270708       -0.0584895177
 H         -3.0606573573       -1.2340547401       -0.4742274405
 H         -2.9564588587        0.5032559479       -0.7614588476
 H         -1.7716085764       -0.5903726900       -1.4808775115
 H         -0.8930172404       -1.1534160405        0.7717319724
 H         -2.1449995670       -0.1654498392        1.5225848903
 H         -1.1734152837        1.8565509394        0.3650721274
 H         -0.1275312321        1.1110406158        1.5790628313
 H          1.1228734606        1.7703488056       -0.4658446450
 H          0.1242724873        0.6608457148       -1.4360861761
  14
  -17.7063981200000       3.035727026784171E-002 !mtd4
 C         -2.3669578505       -0.4762087935        0.5610643661
 C         -1.5067293822       -0.1707612566       -0.6594711024
 C         -0.5877884190        1.0356827706       -0.4612069224
 C          0.5260741995        0.7979810314        0.5453127184
 Cl         1.6423230983       -0.4782634077       -0.0189183718
 H         -3.0566764248       -1.2865582234        0.3383141633
 H         -1.7568211294       -0.7803160860        1.4075636103
 H         -2.9473669183        0.3981250578        0.8491827395
 H         -2.1595369016        0.0327587207       -1.5108208478
 H         -0.9007790755       -1.0435939794       -0.9073551500
 H         -0.1418077172        1.3071547815       -1.4202334201
 H         -1.1756669415        1.8877839024       -0.1096600393
 H          0.1384425576        0.4700146043        1.5084054051
 H          1.1289217859        1.6959428004        0.6804817300
  14
  -17.7063980900000       3.035630656596897E-002 !mtd13
 C         -2.3684512428       -0.4756368234        0.5609287461
 C         -1.5071430458       -0.1713517787       -0.6591628288
 C         -0.5879440184        1.0349059945       -0.4612851368
 C          0.5254201069        0.7968548160        0.5457254654
 Cl         1.6434509667       -0.4774941143       -0.0191248930
 H         -2.9492347451        0.3988991128        0.8476761287
 H         -3.0579605430       -1.2863456557        0.3384412470
 H         -1.7590414358       -0.7786982527        1.4083665304
 H         -2.1591116830        0.0319131420       -1.5111897578
 H         -0.9011997478       -1.0445355438       -0.9060955946
 H         -0.1415355190        1.3058247389       -1.4202278534
 H         -1.1756096059        1.8873642453       -0.1103647924
 H          0.1375589355        0.4675579450        1.5084723649
 H          1.1275457725        1.6951706186        0.6820202618
  14
  -17.7063980700000       3.035566411497394E-002 !md1
 C         -2.3654591281       -0.4770876425        0.5613434760
 C         -1.5071758292       -0.1693903757       -0.6600695993
 C         -0.5876592275        1.0365558544       -0.4614972264
 C          0.5258787686        0.7981611359        0.5451145164
 Cl         1.6418827255       -0.4788555798       -0.0185760724
 H         -1.7542144834       -0.7848322552        1.4056787393
 H         -2.9442408793        0.3970497581        0.8531727727
 H         -3.0567948978       -1.2858443077        0.3373693256
 H         -2.1613843065        0.0360286293       -1.5099053142
 H         -0.9017163104       -1.0418320879       -0.9107577248
 H         -0.1415537470        1.3079166454       -1.4205045453
 H         -1.1751301768        1.8889143314       -0.1098954429
 H          0.1381002391        0.4706141101        1.5082719737
 H          1.1293835114        1.6957123086        0.6800355303
  14
  -17.7063980400000       3.035470046408907E-002 !mtd3
 C         -2.3714754677       -0.4019506818       -0.5960601121
 C         -1.5008419633       -0.2544951512        0.6461915501
 C         -0.5826864687        0.9677828740        0.5965878233
 C          0.5217014934        0.8623240039       -0.4423135509
 Cl         1.6416605433       -0.4761467472       -0.0584489665
 H         -1.7685900866       -0.5930760280       -1.4800082039
 H         -3.0584659062       -1.2357907137       -0.4735578946
 H         -2.9553900263        0.5009219432       -0.7640900409
 H         -0.8931885494       -1.1514860478        0.7754055785
 H         -2.1463390010       -0.1617547402        1.5220991137
 H         -1.1731973768        1.8578261471        0.3635392076
 H         -0.1277747907        1.1133483284        1.5785101050
 H          1.1245959609        1.7701428689       -0.4653512911
 H          0.1253504324        0.6620349422       -1.4364709479
  14
  -17.7049490500000       6.551130547402388E-003 !mtd1
 C         -1.8401107864       -0.9678490752       -0.0097521500
 C         -1.8074785438        0.5287628896       -0.2929249882
 C         -0.5665482027        1.2342534501        0.2577606007
 C          0.7332123865        0.8561415162       -0.4395644829
 Cl         1.4411123872       -0.6542641453        0.2028300934
 H         -2.7831879284       -1.3916147480       -0.3478907886
 H         -1.0326881668       -1.4816272642       -0.5226185712
 H         -1.7421562387       -1.1552149912        1.0570774551
 H         -2.6867858328        0.9935452436        0.1594678452
 H         -1.8650298466        0.6974825633       -1.3709942696
 H         -0.6988491062        2.3122023853        0.1301074096
 H         -0.4748110718        1.0360160903        1.3271773516
 H          1.4928772001        1.6225464081       -0.2856077497
 H          0.5810213768        0.7020715737       -1.5077999061
  14
  -17.7049490000000       6.550783937940374E-003 !mtd3
 C         -1.8453234985       -0.9528817312        0.1195761154
 C         -1.8181449954        0.5691113044        0.0574721691
 C         -0.5419651524        1.1388840916       -0.5651778355
 C          0.7118223156        0.9387316660        0.2754641012
 Cl         1.4467229095       -0.6731852008        0.0377818724
 H         -2.8086554024       -1.2943547372        0.4919212005
 H         -1.6895044690       -1.3768469109       -0.8698024752
 H         -1.0713959162       -1.3322103306        0.7798815221
 H         -1.9374697090        0.9776559670        1.0639020775
 H         -2.6660274961        0.9137593551       -0.5393492923
 H         -0.3885155111        0.7027404528       -1.5539289801
 H         -0.6743104976        2.2166410868       -0.6946048976
 H          0.4957641594        1.0315431724        1.3397650679
 H          1.4843338938        1.6551275613       -0.0041479544
  14
  -17.7049489900000       6.550714618243698E-003 !mtd1
 C         -1.8398378780       -0.9679293442       -0.0101203689
 C         -1.8077769423        0.5289281715       -0.2924416582
 C         -0.5665180281        1.2342298500        0.2578281027
 C          0.7332048651        0.8561404126       -0.4397339355
 Cl         1.4410994939       -0.6542838690        0.2028239078
 H         -1.7404038812       -1.1561100413        1.0564814454
 H         -2.7832252678       -1.3916589489       -0.3474023159
 H         -1.0329760980       -1.4811954490       -0.5244130087
 H         -2.6869138711        0.9932700104        0.1609677247
 H         -1.8661036669        0.6983663795       -1.3704324809
 H         -0.6988753585        2.3122069336        0.1301395281
 H         -0.4745421460        1.0359838038        1.3272812864
 H          1.4929235046        1.6224882853       -0.2856980910
 H          0.5809945018        0.7020313759       -1.5079445653
  14
  -17.7049489900000       6.550714618243698E-003 !mtd11
 C         -1.8435758128       -0.9526849111        0.1210500231
 C         -1.8181785227        0.5692252625        0.0552258639
 C         -0.5413787917        1.1388426382       -0.5661587482
 C          0.7111313085        0.9387055763        0.2763228987
 Cl         1.4460316989       -0.6732553468        0.0381004517
 H         -1.6812655382       -1.3790934053       -0.8662076782
 H         -1.0727961238       -1.3290954584        0.7867704764
 H         -2.8085507452       -1.2946819900        0.4887657264
 H         -1.9403563379        0.9801862654        1.0603354038
 H         -2.6650491894        0.9113571479       -0.5444197263
 H         -0.3866576168        0.7024388417       -1.5546239094
 H         -0.6734757699        2.2165545267       -0.6960661791
 H          0.4935511509        1.0306126734        1.3404110482
 H          1.4839523100        1.6553458123       -0.0018751769
  14
  -17.7049489800000       6.550645299305184E-003 !mtd8
 C         -1.8442361334       -0.9527235683        0.1207218144
 C         -1.8183608474        0.5691532410        0.0556643748
 C         -0.5416265472        1.1388234049       -0.5658753237
 C          0.7112782004        0.9385695622        0.2761027364
 Cl         1.4464271061       -0.6731772657        0.0380288901
 H         -1.0706230487       -1.3300835147        0.7825441548
 H         -2.8076439479       -1.2943016046        0.4927313898
 H         -1.6868688380       -1.3784086728       -0.8675789457
 H         -1.9397126878        0.9795759595        1.0610736363
 H         -2.6654697571        0.9119169801       -0.5433239864
 H         -0.3872757635        0.7027697202       -1.5545317406
 H         -0.6738161938        2.2165881145       -0.6953397078
 H          0.4940635640        1.0307274964        1.3402914313
 H          1.4840339815        1.6552624258       -0.0023274023
  14
  -17.7049488100000       6.549466989253405E-003 !mtd2
 C         -1.8396150181       -0.9678687870       -0.0078939790
 C         -1.8064950943        0.5280175053       -0.2949390719
 C         -0.5667892696        1.2350650718        0.2565667402
 C          0.7344856445        0.8574088889       -0.4381548152
 Cl         1.4400681123       -0.6548524264        0.2027323148
 H         -1.0323483312       -1.4832427434       -0.5192445551
 H         -1.7419737143       -1.1526072804        1.0593728052
 H         -2.7826989484       -1.3921410943       -0.3452786673
 H         -2.6866384650        0.9938933733        0.1547263615
 H         -1.8620521470        0.6940076439       -1.3735795288
 H         -0.6996646900        2.3127366692        0.1267662932
 H         -0.4765354120        1.0387844885        1.3264213248
 H          1.4941372161        1.6231349900       -0.2803129256
 H          0.5849692700        0.7058765305       -1.5072267128
  14
  -17.7033594500000       1.218390977524461E-003 !mtd7
 C         -2.9884078806       -0.2993058314        0.3915711364
 C         -1.9404378322        0.1919729301       -0.6001878276
 C         -0.5522767775       -0.4172857354       -0.3293922444
 C          0.4864464301        0.6644149805       -0.0840869848
 Cl         2.0868871657       -0.0598114532        0.2399299239
 H         -3.9548749627        0.1515349120        0.1784751659
 H         -3.0941620353       -1.3799474187        0.3314069954
 H         -2.7049294306       -0.0365151132        1.4081521626
 H         -1.8786184437        1.2805625237       -0.5394915284
 H         -2.2627454890       -0.0569416396       -1.6119370611
 H         -0.5978033974       -1.0654924703        0.5471620914
 H         -0.2321316777       -1.0303950450       -1.1727742608
 H          0.2338234897        1.2669082599        0.7885550249
 H          0.6057821318        1.3082278146       -0.9556836140
  14
  -17.7026984200000       6.053385330545605E-004 !mtd5
 C         -2.6884647555       -0.4893783284        0.5156196016
 C         -1.9945062074        0.3772469487       -0.5444500649
 C         -0.5307545951       -0.0089828156       -0.7729453386
 C          0.3401341886        0.4010352646        0.4031223619
 Cl         2.0320943323       -0.1058277185        0.1390137497
 H         -3.4863397002       -1.0805499436        0.0741206362
 H         -1.9869872735       -1.1793205022        0.9770438335
 H         -3.1228497715        0.1207731358        1.3027580985
 H         -2.0360829464        1.4288182980       -0.2552918097
 H         -2.5217166264        0.2841876629       -1.4945594823
 H         -0.4549454622       -1.0869595317       -0.9269374397
 H         -0.1604509542        0.4843191206       -1.6738995524
 H          0.0159195924       -0.0686204731        1.3310551687
 H          0.3521887055        1.4840752620        0.5265816661
