  14
        -17.70717383
 C         -2.8419833926       -0.4268572293        0.1529013702
 C         -1.4347853693       -0.2754338116       -0.4100206003
 C         -0.6541463343        0.8178457846        0.3166598916
 C          0.7509016836        0.9968680445       -0.2321887573
 Cl         1.7501520882       -0.4530802408        0.0690933555
 H         -2.8049485127       -0.6891455134        1.2077907019
 H         -3.3979887029        0.5028348017        0.0505852897
 H         -3.3810490888       -1.2090523232       -0.3756351469
 H         -1.4915303146       -0.0311120545       -1.4733420479
 H         -0.8997586868       -1.2214706457       -0.3128642267
 H         -1.1772573809        1.7720562067        0.2104919397
 H         -0.5995957229        0.5811612435        1.3811266104
 H          1.2636120247        1.8285923025        0.2508475387
 H          0.7393340401        1.1467031696       -1.3119448535
