! pbe def2-sv(p) def2/J RI DEFGRID1 loosescf d4 GCP(DFT/SV(P)) printgap
%output
    printlevel normal
end
* xyz 0 1
C 2.87650254 -1.0348423698 0.8825868193
C 2.5481204746 0.2048463788 0.1057732777
C 3.4923555976 1.0240434346 -0.3311006412
C 1.0899286336 0.4828888711 -0.1708533139
H 1.0169551506 1.4852620156 -0.6027583734
C 0.5135746044 -0.5255291419 -1.1911239354
C -0.7477012834 -1.2449573451 -0.6881121261
C -1.6884793826 -0.2510302436 -0.0799818842
C -1.1729991622 0.6044758313 0.8229962969
C 0.2691194315 0.5049657725 1.1406511082
C -3.080841293 -0.2063247991 -0.4705299675
O -3.9235852822 0.5527755238 -0.0224118792
H 2.2463932948 -1.8672990234 0.5798766247
H 3.917220402 -1.310526031 0.7362879854
H 2.7226136904 -0.8610991862 1.9469630529
H 3.2616966444 1.9235162139 -0.8765739968
H 4.5377867395 0.8287515735 -0.1618614928
H 0.2610578187 0.0081931625 -2.1078375309
H 1.2675129119 -1.2696797003 -1.4491533207
H -1.2204312086 -1.7826499227 -1.5099940744
H -0.4648667402 -1.9743433812 0.075253413
H -1.7934366629 1.3567271804 1.2860740021
H 0.6047203499 1.3266593158 1.7711742407
H 0.4400969495 -0.4346500008 1.6714854208
H -3.3684543169 -0.9427597077 -1.2451492114
*
