! wb97x-v def2-tzvp def2/J RIJCOSX DEFGRID2 scfconv7 GCP(DFT/TZ) printgap
%output
    printlevel normal
end
%cpcm
    smd true
    smdsolvent "water"
end
* xyz 0 1
C -2.557411555312453 0.14712216783165513 -0.4934335397552924
C -2.011611608549354 -1.1169951753796905 -0.27552449271546015
C -0.7212239518689901 -1.2429747265393714 0.23109691592094983
C 0.045556583626509856 -0.11156289539230632 0.5300739493211732
C -0.5129801120327493 1.1503004123368934 0.3100498520122647
C -1.8037481197632717 1.280650753262546 -0.19867082139891193
C 1.4577514052922143 -0.2616332764221836 1.0316051045753531
C 2.4509519651894185 -0.5295332648101347 -0.09134563523316343
O 2.4843917851062494 0.620247138517283 -0.9578465088602249
H -3.563877407436946 0.2471664836642348 -0.8874404138728594
H -2.5942040863691878 -2.0063812000208876 -0.49657559696776365
H -0.30139812052787884 -2.2312250564778546 0.401890707956267
H 0.06908736548014324 2.0381568275521538 0.541865725057375
H -2.2213444263827786 2.2695007949003663 -0.36320979495741074
H 1.766424333421104 0.6412343241106194 1.5703460764464858
H 1.5194070070695151 -1.1041875410388118 1.729531646620566
H 3.4469595933988506 -0.71163823751136 0.333842787190317
H 2.145802962366804 -1.4214852746234454 -0.6567956240153427
H 3.0958867304136866 0.42137706650020074 -1.677567050320682
*
