! pbe def2-sv(p) def2/J RI DEFGRID1 loosescf d4 GCP(DFT/SV(P)) printgap
%output
    printlevel normal
end
* xyz 0 1
C 2.0887406728 -1.3664490793 -0.1462899897
C 1.6614001581 0.082549605 -0.3389335791
C 0.3277931327 0.4518954229 0.3285318507
H 0.3821420586 0.2147683322 1.3974566344
C -0.8819417681 -0.3040031976 -0.2886051967
C -1.266289832 -1.4999907565 0.5828223322
C -2.1021936527 0.60392339 -0.4515608796
O 0.1729721325 1.8614262894 0.3099710456
H 2.1186148335 -1.6180297169 0.9111608623
H 3.0827732543 -1.5137575636 -0.5614957533
H 1.4073109099 -2.0463115024 -0.6499035977
H 2.4257733099 0.7393955786 0.0842498724
H 1.5891572462 0.300383157 -1.4082764421
H -0.5930342805 -0.6693976195 -1.2804054369
H -0.4165374934 -2.1516360434 0.7608049307
H -1.6407236219 -1.1538829066 1.5438618914
H -2.0490596361 -2.0797714661 0.0990100392
H -2.3376029621 1.0898581866 0.4924291547
H -2.9591757274 0.0123252936 -0.7639676209
H -1.9316923023 1.3742795841 -1.1986327303
H 0.2318495659 2.1694465278 -0.6044551232
*
