! pbe def2-sv(p) def2/J RI DEFGRID1 loosescf d4 GCP(DFT/SV(P)) printgap
%output
    printlevel normal
end
* xyz 0 1
C 2.0644748866 1.3850864999 -0.5568047374
C 1.6148257205 0.2513847718 0.3587241385
C 0.4096268128 -0.5442494888 -0.1644705439
H 0.6650784922 -0.8962061776 -1.1720962013
C 0.2042490771 -1.7734649937 0.7217754131
C -0.8649280745 0.313340018 -0.3074721784
C -1.9406182905 -0.4193292041 -1.1113158801
C -1.4465559067 0.773995365 1.0277411257
H 2.2186254453 1.0186429051 -1.5694734445
H 1.3307301882 2.1861631154 -0.5876328523
H 3.0018512188 1.8034883596 -0.1974806719
H 1.3903880389 0.6515523174 1.3489495365
H 2.4472078886 -0.4471919629 0.4752013631
H -0.6459167075 -2.3612760559 0.3884029649
H 1.0870749567 -2.4081325288 0.6839689148
H 0.0444359434 -1.4811082014 1.7562745087
H -0.5884153687 1.2042923493 -0.880715128
H -2.7682689117 0.253065361 -1.3260126389
H -2.3340521686 -1.2679768512 -0.5576211417
H -1.5386082508 -0.7788997887 -2.055904863
H -2.2844657986 1.4450127328 0.850914613
H -0.7063202523 1.3083956158 1.6168748858
H -1.8088203757 -0.0720773755 1.6055762671
*
