! pbe def2-sv(p) def2/J RI DEFGRID1 loosescf d4 GCP(DFT/SV(P)) printgap
%output
    printlevel normal
end
* xyz 0 1
C -1.936837732 0.1914603941 1.0510664162
C -1.3309969754 -0.3859323202 -0.2289720821
C -1.2811687111 0.6826328838 -1.3175652201
C 7.31055e-05 -1.1292011371 -5.07363e-05
C 1.3310143902 -0.385774844 0.2290901325
C 1.9371317155 0.1913783264 -1.0509237638
C 1.280792514 0.6830797741 1.3173735275
H -2.9666888626 0.4908137361 0.865416589
H -1.9380038616 -0.5519326639 1.8450050035
H -1.3922341017 1.0641130223 1.3954434772
H -2.0235622807 -1.1654859438 -0.5753650098
H -0.8236242705 0.2910939857 -2.222258499
H -2.2916136988 1.007650841 -1.5588308112
H -0.7225924299 1.5534190444 -0.9859122711
H 0.1577041874 -1.7824253144 -0.8633087581
H -0.1574794542 -1.7827630701 0.862969036
H 2.023583366 -1.1651557961 0.5758719408
H 2.9666467258 0.491644223 -0.8648648703
H 1.9393179671 -0.5524639533 -1.8444471987
H 1.392019181 1.0633983849 -1.3960997494
H 0.7221787054 1.5536796178 0.9853348845
H 0.8231093529 0.2917245194 2.2220755995
H 2.2911404838 1.0083050035 1.5587528685
*
