  27
  -49.6958244400000        1.00000000000000      !md2
 C         -3.9881925826       -0.6869953627        0.0014505907
 C         -3.9853300055        0.7015550013        0.0012017863
 C         -2.7870522574        1.3874755029        0.0002744695
 C         -1.5759397934        0.6966545445       -0.0003733683
 C         -1.5773110579       -0.7013235341       -0.0002551176
 C         -2.7937839192       -1.3808374546        0.0006368726
 C         -0.3239792662       -1.4802271817       -0.0008765832
 O         -0.3749059695       -2.7139577784       -0.0018685310
 C          0.9233850440       -0.7320892668       -0.0001891973
 C          2.1561421744       -1.4241526449        0.0002663455
 C          3.3606373479       -0.6817866993        0.0011484579
 C          3.3549941617        0.6798458617        0.0012714241
 C          2.1391116769        1.3933200997        0.0004311431
 C          0.9234648389        0.6894217501       -0.0001901212
 C         -0.3183716876        1.4535021042       -0.0010533999
 O         -0.3317008951        2.6909525363       -0.0018088343
 O          2.2125182224        2.7226875350        0.0002737672
 N          2.2114685242       -2.7670335459        0.0002229922
 H         -4.9244612549       -1.2252694725        0.0023365085
 H         -4.9186208454        1.2447634275        0.0017330565
 H         -2.7596284004        2.4670695373       -0.0000088225
 H         -2.7740559175       -2.4605519546        0.0007745196
 H          4.2957067598       -1.2235728859        0.0017291433
 H          4.2704873428        1.2502230819        0.0019274863
 H          1.2810585797        3.0734834910       -0.0005363922
 H          1.3282882300       -3.2678706762       -0.0010138485
 H          3.0970128208       -3.2392634803       -0.0006202500
