  13
  -20.9582487000000       5.388549683734575E-002 !md7
 C         -1.3502060282       -1.2635721103       -0.0119878794
 C         -0.6672619710       -0.0001510413        0.4963274055
 C         -1.3502710165        1.2635193375       -0.0112622587
 N          0.7304267765        0.0000259638       -0.0095964226
 O          1.6154672401       -0.0003098147        0.8110149555
 O          0.8858058191        0.0004695346       -1.2056105432
 H         -1.3191590834       -1.2871151420       -1.0990866456
 H         -0.8552946683       -2.1525654253        0.3731465154
 H         -2.3875610812       -1.2780921810        0.3103998958
 H         -0.5987165310       -0.0004989463        1.5879472612
 H         -1.3184147566        1.2881656202       -1.0983195415
 H         -0.8559889260        2.1523046323        0.3751461792
 H         -2.3878767548        1.2773340565        0.3103414906
  13
  -20.9582487000000       5.388549683734575E-002 !mtd13
 C         -1.3500305590       -1.2637459193       -0.0112686412
 C         -0.6672690326        0.0000497374        0.4963628998
 C         -1.3503550808        1.2634031930       -0.0119689282
 N          0.7303906219        0.0000796197       -0.0095958819
 O          0.8857361298       -0.0004457078       -1.2056318912
 O          1.6154898564        0.0006538555        0.8109995117
 H         -1.3176727285       -1.2886156646       -1.0983089012
 H         -0.8559923925       -2.1524923682        0.3755542379
 H         -2.3877883024       -1.2774212689        0.3098288289
 H         -0.5986971737        0.0003930721        1.5879853881
 H         -0.8556897906        2.1524737035        0.3733145431
 H         -2.3877560884        1.2776926927        0.3102743472
 H         -1.3191707587        1.2870507359       -1.0990695296
  13
  -20.9582486900000       5.388492662697028E-002 !mtd9
 C         -1.3507140484       -1.2628126341       -0.0152950911
 C         -0.6672209936       -0.0010309025        0.4963494602
 C         -1.3498289819        1.2641934651       -0.0079105095
 N          0.7304032513       -0.0003055288       -0.0096127126
 O          0.8857667839        0.0046775004       -1.2056060069
 O          1.6155602363       -0.0048306149        0.8109667804
 H         -1.3197004904       -1.2834750060       -1.1024718054
 H         -0.8561918363       -2.1530445219        0.3674878743
 H         -2.3880825142       -1.2776971005        0.3070639197
 H         -0.5986050437       -0.0043100604        1.5879577713
 H         -2.3872971599        1.2777684519        0.3141314193
 H         -1.3183772329        1.2914708559       -1.0949105162
 H         -0.8549891556        2.1517937805        0.3804420256
  13
  -20.9582486900000       5.388492662697028E-002 !mtd2
 C         -1.3496984361       -1.2637673760       -0.0109425778
 C         -0.6672885760        0.0003753807        0.4963658800
 C         -1.3506806534        1.2633691723       -0.0123462776
 N          0.7304002047        0.0001974898       -0.0095831356
 O          1.6154680015       -0.0019248397        0.8110218570
 O          0.8857561388        0.0018324972       -1.2056125707
 H         -2.3875329446       -1.2775049929        0.3099164841
 H         -1.3170891951       -1.2890203125       -1.0979749881
 H         -0.8555748110       -2.1522583608        0.3763601717
 H         -0.5987013830        0.0009100359        1.5879845168
 H         -2.3883978468        1.2769525835        0.3088953052
 H         -1.3184758513        1.2872296360       -1.0994087757
 H         -0.8569442378        2.1526847345        0.3735433169
  13
  -20.9582486800000       5.388435642242614E-002 !md5
 C         -1.3497351637       -1.2641801423       -0.0091292064
 C         -0.6672693812        0.0006278878        0.4963389057
 C         -1.3507383376        1.2629488736       -0.0140478109
 N          0.7304181019        0.0002894408       -0.0096191184
 O          0.8857255338       -0.0031402810       -1.2056148973
 O          1.6155549533        0.0035066154        0.8109640451
 H         -1.3163618982       -1.2914143290       -1.0960887986
 H         -0.8560870193       -2.1520915827        0.3800920644
 H         -2.3878063071       -1.2771208405        0.3110243527
 H         -0.5986838012        0.0028665277        1.5879507379
 H         -1.3187434337        1.2852934659       -1.1011473637
 H         -0.8568738150        2.1527572157        0.3705580079
 H         -2.3884068090        1.2770624230        0.3073704093
  13
  -20.9582486700000       5.388378622391585E-002 !mtd3
 C         -1.3507978332       -1.2634470830       -0.0131375398
 C         -0.6673206774       -0.0008418774        0.4963024401
 C         -1.3496234130        1.2637346543       -0.0101351117
 N          0.7304174930       -0.0002351094       -0.0095762886
 O          1.6155450754        0.0015552339        0.8110499523
 O          0.8857307165       -0.0009460991       -1.2056037934
 H         -2.3887824737       -1.2767572799        0.3073268566
 H         -1.3178385391       -1.2869929626       -1.1001926146
 H         -0.8576697323       -2.1530557530        0.3728460455
 H         -0.5988724508       -0.0020473154        1.5879162274
 H         -1.3172713110        1.2894591071       -1.0971464000
 H         -0.8550734896        2.1519008065        0.3774174610
 H         -2.3873835188        1.2776968767        0.3110308921
  13
  -20.9582486700000       5.388378622391585E-002 !mtd8
 C         -1.3504940371       -1.2633388964       -0.0132012714
 C         -0.6673001906       -0.0006208463        0.4963928521
 C         -1.3498822953        1.2637486278       -0.0101139529
 N          0.7304063258       -0.0001420759       -0.0095600841
 O          1.6154910894        0.0013437239        0.8110262595
 O          0.8857335169       -0.0010890747       -1.2056140017
 H         -0.8572206533       -2.1529344633        0.3727196139
 H         -2.3884990572       -1.2767734107        0.3071431521
 H         -1.3173880205       -1.2868725162       -1.1003108862
 H         -0.5987658413       -0.0018613567        1.5880036651
 H         -1.3175054823        1.2895617109       -1.0971248564
 H         -0.8556693556        2.1520321603        0.3774905228
 H         -2.3876547657        1.2772958165        0.3110201181
  13
  -20.9582486700000       5.388378622391585E-002 !mtd12
 C         -1.3512300008       -1.2622795867       -0.0180032443
 C         -0.6672510838       -0.0017968962        0.4962988913
 C         -1.3493535906        1.2647683692       -0.0051513491
 N          0.7304401697       -0.0005604121       -0.0096373209
 O          0.8857792777        0.0081990763       -1.2055736379
 O          1.6155769652       -0.0085149448        0.8109407618
 H         -0.8571789129       -2.1535215550        0.3630041768
 H         -2.3886057996       -1.2774800378        0.3041837740
 H         -1.3201733030       -1.2807481816       -1.1051418724
 H         -0.5986187856       -0.0075231252        1.5878937849
 H         -1.3176260445        1.2945690747       -1.0920742814
 H         -0.8542569704        2.1513150463        0.3853594442
 H         -2.3869186088        1.2779457634        0.3167116132
  13
  -20.9582486600000       5.388321603143933E-002 !mtd4
 C         -1.3488558748       -1.2655919743       -0.0025461801
 C         -0.6672827058        0.0022773888        0.4963124752
 C         -1.3515757539        1.2615165796       -0.0206651765
 N          0.7304420725        0.0008291278       -0.0096057628
 O          0.8857861002       -0.0113622896       -1.2055465202
 O          1.6154467229        0.0125113902        0.8109491547
 H         -2.3870513867       -1.2772965072        0.3172059647
 H         -1.3150145746       -1.2986614878       -1.0893132114
 H         -0.8549954806       -2.1511994867        0.3916074331
 H         -0.5986413561        0.0104011072        1.5878856895
 H         -1.3204845651        1.2776514584       -1.1079059107
 H         -0.8577117078        2.1536817139        0.3584495638
 H         -2.3889807154        1.2770866440        0.3015194164
  13
  -20.9582486500000       5.388264584519910E-002 !gc
 C         -1.3506047190       -1.2634296516       -0.0128612737
 C         -0.6672642228       -0.0005970365        0.4963502438
 C         -1.3498714934        1.2636484925       -0.0104082535
 N          0.7303912473       -0.0001389674       -0.0095726908
 O          1.6154912952        0.0010318717        0.8110076499
 O          0.8858116325       -0.0006223846       -1.2056158079
 H         -0.8563890095       -2.1528338126        0.3721998485
 H         -2.3881498369       -1.2775412871        0.3089455607
 H         -1.3189713769       -1.2865756344       -1.0999436211
 H         -0.5987147750       -0.0017000356        1.5879634607
 H         -2.3880772240        1.2765566603        0.3092491221
 H         -1.3160317484        1.2900608203       -1.0973740179
 H         -0.8566413022        2.1519712132        0.3783634406
  13
  -20.9582486500000       5.388264584519910E-002 !mtd12
 C         -1.3497503797       -1.2637257912       -0.0108694893
 C         -0.6672473412        0.0004603760        0.4963320663
 C         -1.3508600661        1.2632874492       -0.0124459503
 N          0.7304305616        0.0002591122       -0.0095576126
 O          1.6155863854       -0.0021035342        0.8110134259
 O          0.8857733308        0.0019279586       -1.2055730804
 H         -1.3187809155       -1.2882322738       -1.0979402860
 H         -0.8544007208       -2.1521133641        0.3750705835
 H         -2.3870677939       -1.2784000950        0.3116389033
 H         -0.5987651301        0.0009990917        1.5879593184
 H         -2.3886775786        1.2770408789        0.3087097792
 H         -1.3182306542        1.2870256875       -1.0996478084
 H         -0.8571018225        2.1526037254        0.3733975700
  13
  -20.9582486300000       5.388150549041439E-002 !gc
 C         -1.3510728530       -1.2631308232       -0.0142715400
 C         -0.6672916160       -0.0011960984        0.4963623779
 C         -1.3494510209        1.2638783873       -0.0090244458
 N          0.7304855729       -0.0003231380       -0.0095979253
 O          1.6155152857        0.0030164968        0.8110349705
 O          0.8857679501       -0.0024648676       -1.2056097136
 H         -2.3884107620       -1.2775550284        0.3081594946
 H         -1.3200898507       -1.2847546149       -1.1014150276
 H         -0.8567353114       -2.1531500069        0.3692121372
 H         -0.5986686126       -0.0033186666        1.5879739517
 H         -0.8552704617        2.1516011954        0.3799149999
 H         -2.3873692307        1.2772898142        0.3115428139
 H         -1.3165348737        1.2909664871       -1.0959936195
  13
  -20.9582486300000       5.388150549041439E-002 !mtd2
 C         -1.3497724065       -1.2636299641       -0.0113421368
 C         -0.6673085269        0.0002967387        0.4963781641
 C         -1.3507256896        1.2634180330       -0.0119122091
 N          0.7305059905        0.0002792870       -0.0096062610
 O          0.8857558204       -0.0007021366       -1.2056759751
 O          1.6155033651        0.0004426129        0.8110520120
 H         -2.3869747343       -1.2785958182        0.3115019470
 H         -1.3191779517       -1.2875441535       -1.0984276731
 H         -0.8543002808       -2.1522590060        0.3738880072
 H         -0.5985673895        0.0005218519        1.5879974652
 H         -2.3885984533        1.2765765467        0.3088717852
 H         -1.3180929181        1.2879014335       -1.0989535739
 H         -0.8573750088        2.1526269557        0.3747296137
  13
  -20.9582485900000       5.387922485344930E-002 !mtd3
 C         -1.3513548521       -1.2631283690       -0.0149813043
 C         -0.6672979217       -0.0015926822        0.4963455688
 C         -1.3489844891        1.2640972343       -0.0082367531
 N          0.7303642064       -0.0005296962       -0.0096165093
 O          1.6154076529        0.0042227673        0.8110172014
 O          0.8858217786       -0.0033855951       -1.2056320466
 H         -0.8571063467       -2.1535718322        0.3676623762
 H         -2.3886143048       -1.2776031021        0.3077007356
 H         -1.3206398515       -1.2839634244       -1.1021325276
 H         -0.5986858909       -0.0043290918        1.5879559329
 H         -0.8542624902        2.1514891092        0.3807959797
 H         -2.3867520897        1.2779020681        0.3127968302
 H         -1.3166013261        1.2915820855       -1.0952180843
  13
  -20.9582485900000       5.387922485344930E-002 !mtd1
 C         -1.3530577884       -1.2591318811       -0.0320251584
 C         -0.6672588408       -0.0053662282        0.4963092943
 C         -1.3473838897        1.2676611662        0.0088834868
 N          0.7304208844       -0.0018408568       -0.0096073116
 O          0.8857952224        0.0257917058       -1.2053050437
 O          1.6154488060       -0.0275998772        0.8106387749
 H         -0.8601847550       -2.1552250550        0.3390035382
 H         -2.3904565999       -1.2764499328        0.2900920570
 H         -1.3221169995       -1.2655455190       -1.1193800666
 H         -0.5986552849       -0.0235741108        1.5877777774
 H         -2.3851260769        1.2784359902        0.3301188667
 H         -1.3148629976        1.3098321416       -1.0775916914
 H         -0.8515251325        2.1491179253        0.4097512396
  13
  -20.9582485900000       5.387922485344930E-002 !mtd6
 C         -1.3487043321       -1.2659780373       -0.0005163362
 C         -0.6672522569        0.0027526827        0.4963283506
 C         -1.3517932018        1.2609796091       -0.0227449137
 N          0.7303841214        0.0008686272       -0.0096027817
 O          0.8858727731       -0.0138134797       -1.2055482039
 O          1.6154539558        0.0153737120        0.8109736400
 H         -0.8549188552       -2.1508565502        0.3953487173
 H         -2.3870042808       -1.2771322359        0.3189331987
 H         -1.3145081461       -1.3009360414       -1.0872270285
 H         -0.5986639934        0.0127546060        1.5879071992
 H         -0.8568620685        2.1538384897        0.3533436995
 H         -2.3886419570        1.2777996093        0.3012341930
 H         -1.3225432757        1.2744559930       -1.1100890279
  13
  -20.9582485800000       5.387865470924073E-002 !mtd7
 C         -1.3478121159       -1.2669767076        0.0045933400
 C         -0.6672330196        0.0041611458        0.4963321196
 C         -1.3526459258        1.2598469927       -0.0278293018
 N          0.7303950702        0.0016171813       -0.0095989738
 O          0.8858461133       -0.0204532345       -1.2054080287
 O          1.6154196489        0.0221837147        0.8107877966
 H         -2.3850905159       -1.2792858147        0.3272879810
 H         -1.3167943708       -1.3048092283       -1.0821019156
 H         -0.8511706420       -2.1498790201        0.4012875113
 H         -0.5987568211        0.0186326657        1.5878751908
 H         -0.8591128535        2.1545458312        0.3456726359
 H         -2.3898505614        1.2766694824        0.2949184200
 H         -1.3222510503        1.2695586325       -1.1151631244
  13
  -20.9582485200000       5.387523397108940E-002 !mtd13
 C         -1.3481464539       -1.2645109507       -0.0067769512
 C         -0.6672792868        0.0023237360        0.4963097885
 C         -1.3522856398        1.2626741768       -0.0164450026
 N          0.7304072815        0.0007930053       -0.0095945020
 O          1.6154595142       -0.0080129087        0.8110253157
 O          0.8858038004        0.0072060653       -1.2056181565
 H         -1.3176096819       -1.2922476388       -1.0937984708
 H         -0.8515561706       -2.1511314085        0.3816606982
 H         -2.3853269847       -1.2795926400        0.3160891351
 H         -0.5986696486        0.0060863132        1.5879081071
 H         -0.8607360874        2.1539307084        0.3677781766
 H         -2.3904940318        1.2751657304        0.3032575230
 H         -1.3185229171        1.2837733803       -1.1035162362
  13
  -20.9570440600000       1.506113421310760E-002 !mtd4
 C         -1.4997419692       -0.9296445665       -0.6238764017
 C         -0.6779522128       -0.1830237115        0.4145128082
 C         -1.2373023578        1.1918135398        0.7425536065
 N          0.7372936703       -0.0567185605       -0.0535424629
 O          1.3788926647        0.8780588103        0.3583877254
 O          1.1606714498       -0.9175918988       -0.7848915040
 H         -1.0344896046       -1.8802930513       -0.8701846304
 H         -2.4967730563       -1.1177929986       -0.2358284990
 H         -1.5858652834       -0.3411624630       -1.5345490663
 H         -0.6100949523       -0.7823412282        1.3317771844
 H         -0.5922414492        1.7107688694        1.4464172631
 H         -2.2252358913        1.0896669482        1.1825238875
 H         -1.3184110896        1.7937522140       -0.1597111294
  13
  -20.9570439400000       1.505922182074245E-002 !gc
 C         -1.4992522840       -0.9302557911       -0.6235434784
 C         -0.6779877639       -0.1828777340        0.4147375836
 C         -1.2371718467        1.1923125100        0.7419156845
 N          0.7371556734       -0.0567643000       -0.0533626549
 O          1.3791596732        0.8774114952        0.3593064558
 O          1.1599713609       -0.9169472092       -0.7858422210
 H         -1.5826757849       -0.3435910053       -1.5356237334
 H         -1.0355761906       -1.8823754318       -0.8671425004
 H         -2.4972933555       -1.1155133460       -0.2367823782
 H         -0.6101572410       -0.7816617285        1.3323595226
 H         -2.2253825422        1.0905424649        1.1813230394
 H         -1.3177140741        1.7939066052       -0.1606385893
 H         -0.5924868240        1.7115661756        1.4459146355
