  13
        -20.95824870
 C         -1.3502060282       -1.2635721103       -0.0119878794
 C         -0.6672619710       -0.0001510413        0.4963274055
 C         -1.3502710165        1.2635193375       -0.0112622587
 N          0.7304267765        0.0000259638       -0.0095964226
 O          1.6154672401       -0.0003098147        0.8110149555
 O          0.8858058191        0.0004695346       -1.2056105432
 H         -1.3191590834       -1.2871151420       -1.0990866456
 H         -0.8552946683       -2.1525654253        0.3731465154
 H         -2.3875610812       -1.2780921810        0.3103998958
 H         -0.5987165310       -0.0004989463        1.5879472612
 H         -1.3184147566        1.2881656202       -1.0983195415
 H         -0.8559889260        2.1523046323        0.3751461792
 H         -2.3878767548        1.2773340565        0.3103414906
