  22
        -39.97372857
 C          4.8273845155        1.1148269269       -0.9836758654
 C          4.5335569231        0.4424258547        0.3580298302
 C          3.2673400950       -0.3912400889        0.2673707397
 O          3.2721340543       -1.5960459186        0.1843522773
 N          2.1355134514        0.3803529153        0.2672278890
 C          0.8054050895       -0.0169516586        0.1549154857
 C          0.4189595903       -1.3500793972        0.0291329298
 C         -0.9192061384       -1.6730183884       -0.0782277571
 C         -1.8925472238       -0.6851383519       -0.0626306116
 C         -1.5106380234        0.6470502693        0.0629861460
 C         -0.1719164292        0.9775433681        0.1707977774
 Cl        -2.6952521356        1.8984074642        0.0857491265
 Cl        -3.5582189535       -1.1077239928       -0.1976029081
 H          5.7542695860        1.6798376749       -0.9231304922
 H          4.0281965300        1.7956753530       -1.2700160246
 H          4.9323670816        0.3635969149       -1.7624819120
 H          4.4323201728        1.1936378656        1.1440057489
 H          5.3540963145       -0.2266958560        0.6173122428
 H          2.2691999883        1.3789071744        0.3490289420
 H          1.1689558120       -2.1226156897        0.0166485453
 H         -1.2185329031       -2.7042511027       -0.1755664622
 H          0.1048345012        2.0166916372        0.2674751746
  22
        -39.97330072
 C          5.7297633278        0.0814343678       -0.0986321671
 C          4.4256635107        0.8637931415       -0.0215870457
 C          3.2206786587       -0.0633246664       -0.0657650875
 O          3.2989787664       -1.2637288913       -0.1541287443
 N          2.0385171797        0.6309858449        0.0065441197
 C          0.7345477708        0.1406354288       -0.0042377020
 C          0.4335746118       -1.2170862136       -0.0966990339
 C         -0.8830658201       -1.6330669076       -0.1017655429
 C         -1.9192310775       -0.7153210482       -0.0157236823
 C         -1.6228714579        0.6411024743        0.0767519395
 C         -0.3062443721        1.0646412196        0.0823477541
 Cl        -2.8867598799        1.8074053855        0.1851981149
 Cl        -3.5567239298       -1.2537198378       -0.0234566915
 H          5.7665710440       -0.4938200056       -1.0196529676
 H          5.7984669994       -0.6135453176        0.7337661068
 H          6.5812184334        0.7562669757       -0.0679797167
 H          4.3557347164        1.5639524223       -0.8582194639
 H          4.3860878127        1.4409923210        0.9059338421
 H          2.1070740146        1.6370670458        0.0781860978
 H          1.2320406731       -1.9362784495       -0.1638397710
 H         -1.1159447064       -2.6833731311       -0.1732317676
 H         -0.0959406660        2.1211544774        0.1547910460
  22
        -39.97312884
 C          4.9536140137       -0.0197357371       -1.1907403814
 C          4.5153068980        0.0372830121        0.2732729993
 C          3.0508487144        0.4278076356        0.3728453198
 O          2.6800236057        1.5318751558        0.6908752182
 N          2.2137414626       -0.6039793421        0.0387445398
 C          0.8227236592       -0.6181662675       -0.0316766762
 C          0.1945021856       -1.8054912149       -0.4104602787
 C         -1.1807965852       -1.8745998999       -0.4965793030
 C         -1.9554921217       -0.7614427950       -0.2068328151
 C         -1.3331190226        0.4248279106        0.1714265263
 C          0.0466437803        0.5001009403        0.2597181422
 Cl        -2.2747415397        1.8180849468        0.5356715675
 Cl        -3.6723664677       -0.8572063411       -0.3171798188
 H          6.0110642155       -0.2641911689       -1.2549656844
 H          4.7938514693        0.9450586550       -1.6656605626
 H          4.3930350350       -0.7708478310       -1.7439440251
 H          5.0977159483        0.7945340489        0.7982528331
 H          4.6797766297       -0.9282784780        0.7560449605
 H          2.6526976422       -1.4818990482       -0.2024728538
 H          0.7863562795       -2.6798506588       -0.6388234768
 H         -1.6640390418       -2.7929000402       -0.7893970746
 H          0.5199090774        1.4220747368        0.5537516926
  22
        -39.97270687
 C          5.4654553948        0.8866426606       -0.0878422178
 C          4.4781119933       -0.2715354491       -0.0379014027
 C          3.0407534299        0.2265563795       -0.0402556391
 O          2.7334995383        1.3921546364       -0.0722741060
 N          2.1406117385       -0.8096523047       -0.0007776642
 C          0.7482093284       -0.7613197569        0.0133076538
 C          0.0477711394       -1.9677309116        0.0579298830
 C         -1.3317816449       -1.9778439975        0.0742309156
 C         -2.0394262496       -0.7855218829        0.0463518876
 C         -1.3451202070        0.4199719171        0.0015792135
 C          0.0393619447        0.4364090483       -0.0150263488
 Cl        -2.2023203308        1.9114347871       -0.0337218963
 Cl        -3.7622662897       -0.8079510937        0.0673705582
 H          5.3188628011        1.5395752300        0.7681433097
 H          5.3077131035        1.4738357507       -0.9883510819
 H          6.4874678129        0.5167312099       -0.0804804054
 H          4.6379369529       -0.8648030015        0.8663385002
 H          4.6205442691       -0.9267828514       -0.9012586836
 H          2.5257593423       -1.7440038149        0.0233917829
 H          0.5870562740       -2.9034339407        0.0800601385
 H         -1.8704567789       -2.9112473534        0.1088363703
 H          0.5675472928        1.3745614180       -0.0496481048
  22
        -39.97261031
 C          5.4212578183        0.4415260561       -0.8552502658
 C          4.4831553643        0.6885057606        0.3251778578
 C          3.2359020889       -0.1675824726        0.1798869490
 O          3.2864747980       -1.3683521912        0.0551173175
 N          2.0706382184        0.5528121505        0.2000544889
 C          0.7586810165        0.0912887111        0.1025976957
 C          0.4346629000       -1.2516207197       -0.0809232614
 C         -0.8886741370       -1.6361993477       -0.1689673827
 C         -1.9087643391       -0.7011300048       -0.0773453179
 C         -1.5892495237        0.6409234821        0.1052025498
 C         -0.2657922737        1.0329132079        0.1938214599
 Cl        -2.8327576103        1.8279361301        0.2237000115
 Cl        -3.5546524130       -1.2004905143       -0.1886611392
 H          5.6186360429       -0.6232254534       -0.9469659406
 H          6.3629262250        0.9640792643       -0.7085609527
 H          4.9694717174        0.7895951168       -1.7816149438
 H          4.2362928634        1.7483113037        0.4014661970
 H          4.9822784367        0.3812463576        1.2469781242
 H          2.1507381379        1.5537678588        0.3145334140
 H          1.2206734517       -1.9840760822       -0.1515833939
 H         -1.1393876711       -2.6751768892       -0.3109146236
 H         -0.0379280498        2.0787256055        0.3357592765
  22
        -39.97207393
 C          4.9781520698       -0.7992117990       -0.7425971205
 C          4.5248931411        0.3552095024        0.1436288989
 C          3.0312434319        0.6366877796        0.2135664025
 O          2.6133093658        1.7181774418        0.5578788326
 N          2.2337818890       -0.4235599828       -0.1141349104
 C          0.8430023655       -0.4980020416       -0.1350562163
 C          0.2578844632       -1.6998882361       -0.5369525279
 C         -1.1147257589       -1.8335092227       -0.5755243724
 C         -1.9301127578       -0.7716669634       -0.2137788808
 C         -1.3511420135        0.4288498807        0.1873072653
 C          0.0258153502        0.5689286309        0.2275761799
 Cl        -2.3436417314        1.7590691351        0.6412515845
 Cl        -3.6435066354       -0.9482529726       -0.2641511828
 H          4.5586497624       -0.7129558387       -1.7431219077
 H          4.7102665938       -1.7672807614       -0.3212947039
 H          6.0618969467       -0.7771115565       -0.8325136466
 H          4.9914921228        1.2847480876       -0.1880272256
 H          4.8584235977        0.1871322434        1.1717210827
 H          2.6991717700       -1.2766219950       -0.3883214590
 H          0.8813974474       -2.5349404581       -0.8214235016
 H         -1.5645225599       -2.7627020408       -0.8866823216
 H          0.4657283220        1.5018816381        0.5383876696
  22
        -39.97203049
 C          5.3505941584        0.6782918640        0.6130729754
 C          4.4919064939       -0.1831039149       -0.3097082283
 C          3.0399760648        0.2640053207       -0.2471033568
 O          2.7137319762        1.4246612117       -0.3170105651
 N          2.1554908679       -0.7747569773       -0.1161614595
 C          0.7636637264       -0.7350930773       -0.0444950756
 C          0.0804292341       -1.9421555977        0.1112745956
 C         -1.2968573925       -1.9640482213        0.1889482961
 C         -2.0194539521       -0.7828914565        0.1117653814
 C         -1.3424181725        0.4231122396       -0.0446535986
 C          0.0399107996        0.4513126618       -0.1222481650
 Cl        -2.2186629484        1.9004566957       -0.1449071785
 Cl        -3.7392902449       -0.8198581143        0.2097123743
 H          5.0867903681        0.5006696963        1.6531427221
 H          5.1826686435        1.7285054013        0.3908881432
 H          6.4044537122        0.4507996413        0.4763394032
 H          4.5948870009       -1.2385371525       -0.0533561344
 H          4.8253985529       -0.0453312656       -1.3414951340
 H          2.5450918300       -1.7055788492       -0.0604115716
 H          0.6312636390       -2.8693558717        0.1724444183
 H         -1.8219867117       -2.8978454203        0.3103089959
 H          0.5549258321        1.3898407061       -0.2417593743
  22
        -39.96945357
 C          4.3289964349        1.2746529247       -1.1487976673
 C          3.0448302269        0.9547781494       -0.3891821380
 C          3.2065179124       -0.3192968605        0.4090136688
 O          4.2755799187       -0.7378838362        0.7900982732
 N          2.0791983940       -1.0594840641        0.6791267208
 C          0.7311202718       -0.8705999397        0.3910894568
 C         -0.0543897742       -1.9954494386        0.1252897324
 C         -1.3987389933       -1.8685140841       -0.1542978097
 C         -1.9953766393       -0.6157100310       -0.1726265025
 C         -1.2274360025        0.5069372023        0.1196030936
 C          0.1220093713        0.3818621272        0.4081281427
 Cl        -1.9472101846        2.0711449793        0.1430474466
 Cl        -3.6720277561       -0.4625280865       -0.5356734299
 H          5.1687165263        1.3056450745       -0.4601361374
 H          4.2421424994        2.2356214009       -1.6488863900
 H          4.5296423637        0.5086821361       -1.8935911751
 H          2.2041599402        0.8576124955       -1.0774909871
 H          2.8333549095        1.7686029844        0.3089988203
 H          2.3070527950       -1.9685113400        1.0673490051
 H          0.3989221910       -2.9750442731        0.1347579860
 H         -1.9969257421       -2.7403116745       -0.3653339033
 H          0.6767549917        1.2650933429        0.6723388260
  22
        -39.96934128
 C          4.7544011282       -0.2076600928       -1.4874816247
 C          3.4545590038       -0.6251660624       -0.8059589012
 C          3.3058246144        0.0794745081        0.5241650651
 O          4.2422056685        0.4909699689        1.1699306549
 N          2.0341119189        0.2956743938        0.9999656252
 C          0.7740889920       -0.0417995117        0.5145484326
 C          0.4992783169       -1.2443606526       -0.1355297785
 C         -0.7800896108       -1.5217262527       -0.5780608293
 C         -1.8130832388       -0.6207738977       -0.3721613759
 C         -1.5539390938        0.5696305112        0.3031907889
 C         -0.2735302241        0.8524765619        0.7419952048
 Cl        -2.8205070042        1.6978355832        0.5974221285
 Cl        -3.4012653543       -0.9833310131       -0.9307896542
 H          4.7295269448        0.8506847165       -1.7343622965
 H          4.9019260170       -0.7774776118       -2.4011296994
 H          5.5941916212       -0.3799858576       -0.8201158313
 H          3.4810969120       -1.7016525849       -0.6190847680
 H          2.5967656167       -0.4019360412       -1.4418618770
 H          2.0291788251        0.9191065934        1.8000740832
 H          1.2718937117       -1.9808970760       -0.2721190781
 H         -0.9875023294       -2.4528323313       -1.0806976175
 H         -0.0885592353        1.7789832907        1.2634495660
  22
        -39.96885332
 C          3.4857964432        1.9256459940       -0.1569030709
 C          3.1254079417        0.7591549058        0.7649324183
 C          3.2662590833       -0.5533737318        0.0301303423
 O          4.3428058041       -1.0375482447       -0.2392316868
 N          2.1308503587       -1.2456388562       -0.3128435027
 C          0.7731343373       -0.9799667262       -0.1502403294
 C         -0.0824048480       -2.0434632084        0.1470000355
 C         -1.4372714729       -1.8370473387        0.3022943997
 C         -1.9728690303       -0.5645057673        0.1626496199
 C         -1.1319174146        0.4956098947       -0.1609812738
 C          0.2279677073        0.2893596031       -0.3271359956
 Cl        -1.7721839507        2.0796926757       -0.3786175166
 Cl        -3.6639338348       -0.3118227396        0.3703055070
 H          4.4960574781        1.7927823122       -0.5355143053
 H          3.4364087026        2.8643683324        0.3890873824
 H          2.8111401795        1.9834095281       -1.0086867528
 H          2.1268009147        0.8747982017        1.1833472247
 H          3.8474247255        0.7334016975        1.5840881398
 H          2.3434070185       -2.1816092711       -0.6414378174
 H          0.3233418700       -3.0371937288        0.2609122891
 H         -2.0911805056       -2.6613328791        0.5376606705
 H          0.8435049195        1.1213820161       -0.6220500902
  22
        -39.96870534
 C          4.1863486697       -1.4389688641       -1.0554431873
 C          3.4964852338       -0.0747533012       -1.0070215383
 C          3.3362719535        0.3828802956        0.4245189738
 O          4.2712818359        0.7518246687        1.0991706033
 N          2.0760009610        0.4200834871        0.9674508488
 C          0.8246066190        0.0629770760        0.4687136003
 C          0.6088332284       -1.0840950987       -0.2938258464
 C         -0.6595579243       -1.3921423403       -0.7470897030
 C         -1.7390552893       -0.5794353090       -0.4375177900
 C         -1.5375549952        0.5508526450        0.3512833005
 C         -0.2675954492        0.8659201170        0.7993504816
 Cl        -2.8626599290        1.5654581110        0.7741429386
 Cl        -3.3137899160       -0.9791647327       -1.0086619434
 H          4.3563147200       -1.7378368321       -2.0867574200
 H          3.5873397968       -2.2041883807       -0.5658103111
 H          5.1440047900       -1.3815093530       -0.5444851902
 H          2.5402548615       -0.0922298972       -1.5276033145
 H          4.1463664997        0.6563098143       -1.4930884496
 H          2.0580365578        0.9094993855        1.8557110012
 H          1.4215775209       -1.7555518829       -0.5116118420
 H         -0.8220276997       -2.2793730846       -1.3379531229
 H         -0.1263943503        1.7457450439        1.4079337772
  22
        -39.96814046
 C          2.7763197767        1.0748823997        1.5283116897
 C          3.2799095938        1.0320299208        0.0863083107
 C          3.3330094987       -0.3777947407       -0.4566386391
 O          4.3722499642       -0.9000400266       -0.7956244531
 N          2.1851457889       -1.1302818627       -0.5106191986
 C          0.8403663453       -0.8818149611       -0.2496603712
 C          0.0664220992       -1.9297082102        0.2564303483
 C         -1.2765729158       -1.7562151568        0.5179811734
 C         -1.8851086385       -0.5328961025        0.2764795901
 C         -1.1289042710        0.5084025171       -0.2525251723
 C          0.2185080032        0.3341849016       -0.5219947946
 Cl        -1.8616093020        2.0292148685       -0.5943953484
 Cl        -3.5601124795       -0.3181000080        0.6157120205
 H          2.8410800174        2.0913299923        1.9084316576
 H          3.3895599995        0.4344636662        2.1580014150
 H          1.7426246190        0.7464774357        1.6011579545
 H          4.3036781643        1.4091793957        0.0478016618
 H          2.6688366120        1.6683015004       -0.5525398961
 H          2.3955578675       -2.1033482382       -0.7074124632
 H          0.5279329127       -2.8861685240        0.4499632218
 H         -1.8640590133       -2.5682811521        0.9152539756
 H          0.7627096219        1.1509327488       -0.9625102944
  22
        -39.96812600
 C          2.8276488290        0.6882202559       -1.6258233680
 C          3.2242617863        0.9990498118       -0.1828420831
 C          3.2954998286       -0.2573815731        0.6558970084
 O          4.3321876842       -0.6644179223        1.1310389378
 N          2.1588528623       -1.0083954588        0.8240867575
 C          0.8311068034       -0.8219972277        0.4400977196
 C          0.1129374873       -1.9209656585       -0.0362504592
 C         -1.2077167511       -1.7904746059       -0.4134951481
 C         -1.8449492015       -0.5615484542       -0.3200825825
 C         -1.1459467177        0.5316200895        0.1836647932
 C          0.1769964187        0.4002321452        0.5714560370
 Cl        -1.9220802795        2.0600072547        0.3482275622
 Cl        -3.4890972895       -0.4019994137       -0.8077120484
 H          3.5133598646       -0.0382182954       -2.0558773324
 H          2.8721522454        1.5960601817       -2.2220982612
 H          1.8175523414        0.2894683987       -1.6827814008
 H          2.5343903539        1.7206841522        0.2504967640
 H          4.2241766478        1.4361635356       -0.1657470662
 H          2.3653620583       -1.9237018937        1.2090201354
 H          0.5998912709       -2.8809686778       -0.1158018531
 H         -1.7545103939       -2.6407612622       -0.7883410502
 H          0.6791389734        1.2528991127        0.9952408637
  22
        -39.96810680
 C          2.8871262294        1.0921208869       -1.4341710226
 C          3.3249403758        1.0410112173        0.0289504508
 C          3.3273403807       -0.3677946957        0.5741195840
 O          4.3456002834       -0.9134064561        0.9405382102
 N          2.1634804748       -1.0980217638        0.6138462180
 C          0.8235314745       -0.8617126281        0.3284748695
 C          0.0322124399       -1.9666661493       -0.0024093652
 C         -1.3100650843       -1.8229357536       -0.2821800056
 C         -1.9049665756       -0.5702165713       -0.2363010634
 C         -1.1326061404        0.5321115685        0.1137833598
 C          0.2152638923        0.3891803099        0.4010310508
 Cl        -1.8439034097        2.0983149832        0.2063086883
 Cl        -3.5801137373       -0.3930662702       -0.5963988221
 H          1.8590289580        0.7614705358       -1.5576165544
 H          3.5303837009        0.4561801163       -2.0377080296
 H          2.9678185898        2.1108225604       -1.8052444064
 H          2.7013187888        1.6878535049        0.6455775995
 H          4.3532777814        1.3984387140        0.1112406116
 H          2.3606769401       -2.0648609976        0.8535315894
 H          0.4804166631       -2.9480268731       -0.0428005679
 H         -1.9079062358       -2.6820227574       -0.5408819941
 H          0.7650615259        1.2644092848        0.6968306896
  22
        -39.96806272
 C          2.9990492560        0.3181439214        1.8058269742
 C          3.5543020860       -0.6941005615        0.8042311854
 C          3.4123791150       -0.1959933874       -0.6170067944
 O          4.3667107779        0.0780417416       -1.3096861228
 N          2.1528686932        0.0247636149       -1.1145042588
 C          0.8785549552       -0.2025833122       -0.5926987622
 C          0.5188752218       -1.3917109367        0.0392056601
 C         -0.7645747380       -1.5670723704        0.5186430915
 C         -1.7197977002       -0.5740512480        0.3632905917
 C         -1.3784563960        0.6036995905       -0.2973905968
 C         -0.0915774502        0.7839591495       -0.7717536250
 Cl        -2.5502798421        1.8437826955       -0.5290462441
 Cl        -3.3157302693       -0.8086557820        0.9662129335
 H          3.1939769910       -0.0228771068        2.8194545442
 H          1.9255977349        0.4449200658        1.6864770766
 H          3.4809084433        1.2836131665        1.6705451653
 H          3.0647014482       -1.6575217722        0.9323686966
 H          4.6230241018       -0.8305278270        0.9777309228
 H          2.1728474821        0.5621215198       -1.9742087822
 H          1.2308697567       -2.1937712552        0.1361975098
 H         -1.0385918356       -2.4875686182        1.0087601311
 H          0.1598116661        1.7016858705       -1.2806412690
  22
        -39.96805028
 C          2.9601191996        0.5495192606        1.7278787032
 C          3.4724743285       -0.6152866056        0.8802314833
 C          3.3959462584       -0.2767042157       -0.5923533071
 O          4.3775018496       -0.0834717770       -1.2733379211
 N          2.1546415670       -0.1050746711       -1.1494169249
 C          0.8735595231       -0.2776585383       -0.6177226806
 C          0.4909060413       -1.4444111773        0.0411863400
 C         -0.7906922250       -1.5755292476        0.5394195055
 C         -1.7194487318       -0.5589338048        0.3749613349
 C         -1.3553595664        0.5955356809       -0.3143394559
 C         -0.0698349799        0.7314642044       -0.8076554976
 Cl        -2.4964403869        1.8620440537       -0.5564187154
 Cl        -3.3133510921       -0.7368862094        1.0019004795
 H          1.9010947400        0.7259881129        1.5531314991
 H          3.5089014345        1.4578559323        1.4906269574
 H          3.1019164732        0.3284084517        2.7827383725
 H          2.9089854807       -1.5172139515        1.1089406911
 H          4.5240344524       -0.7977940820        1.1063176497
 H          2.1934495550        0.3454198452       -2.0565349598
 H          1.1847813370       -2.2626506195        0.1416525564
 H         -1.0846390304       -2.4783118438        1.0504695103
 H          0.2016418775        1.6312498959       -1.3377837729
  22
        -39.96800356
 C          3.2416646755       -0.0522836915       -1.8010776039
 C          3.7313793217       -0.8043451373       -0.5645101019
 C          3.4207991431       -0.0614855437        0.7144765139
 O          4.2937633239        0.3499985958        1.4471546164
 N          2.1181401201        0.2200459400        1.0478116133
 C          0.8700084919       -0.0858016288        0.5146179224
 C          0.5773747047       -1.2531234195       -0.1897211657
 C         -0.7000279482       -1.4839476868       -0.6628979295
 C         -1.7180992510       -0.5708653101       -0.4378795283
 C         -1.4430465784        0.5862227995        0.2866290073
 C         -0.1643906739        0.8213393499        0.7569927164
 Cl        -2.6881191150        1.7320777019        0.6049621266
 Cl        -3.3040853205       -0.8763240535       -1.0358637345
 H          3.6718048840        0.9460943921       -1.8247952194
 H          2.1583187549        0.0364997911       -1.8131345023
 H          3.5537555595       -0.5803075376       -2.6987623014
 H          4.8184548955       -0.8970403088       -0.6035872322
 H          3.3151647782       -1.8108362898       -0.5323386412
 H          2.0805645754        0.8661693119        1.8299272856
 H          1.3326945533       -2.0001824157       -0.3574974503
 H         -0.9169641109       -2.3886371132       -1.2079763802
 H          0.0297806727        1.7231814474        1.3171289362
  22
        -39.96753906
 C          3.6216750837        0.4602779399       -1.6979086209
 C          3.0844054716        0.9825413307       -0.3622453967
 C          3.2164383483       -0.1293285668        0.6536938224
 O          4.2634730423       -0.4012813504        1.1958055457
 N          2.1232078121       -0.9293875662        0.8683276093
 C          0.7941371191       -0.7919918282        0.4590135666
 C          0.1289040796       -1.8868156053       -0.0913944041
 C         -1.1887266223       -1.7786941716       -0.4888318380
 C         -1.8678895029       -0.5777687408       -0.3438610908
 C         -1.2186639705        0.5114345705        0.2319127921
 C          0.0996085705        0.4016729972        0.6417303119
 Cl        -2.0526201166        2.0006068652        0.4606189916
 Cl        -3.5068518826       -0.4475940899       -0.8559594905
 H          4.6427489239        0.1066863306       -1.5790400250
 H          3.6104689866        1.2536965537       -2.4407398700
 H          3.0070728235       -0.3618380850       -2.0597113694
 H          2.0557114695        1.3083380447       -0.4886704236
 H          3.6967114143        1.8211176185       -0.0292742063
 H          2.3496718024       -1.7919753802        1.3496592458
 H          0.6516146234       -2.8234466107       -0.2106103737
 H         -1.6999267777       -2.6242151638       -0.9204584170
 H          0.5725063890        1.2403320253        1.1274298449
  22
        -39.96671970
 C          4.2514152834        1.4525166753       -0.9925634587
 C          3.0479793005        0.5332954960       -0.8208887563
 C          3.2013867193       -0.3457151681        0.4023644181
 O          4.2657359030       -0.5921761930        0.9201053780
 N          2.0702376785       -0.9649569859        0.8744540940
 C          0.7267750025       -0.8303856940        0.5071511835
 C         -0.0244769337       -1.9711530168        0.2272512982
 C         -1.3578646765       -1.8664645166       -0.1149786380
 C         -1.9677002120       -0.6224248483       -0.1835121551
 C         -1.2312197010        0.5190168323        0.1231524227
 C          0.1032155178        0.4144781362        0.4779582577
 Cl        -1.9760230868        2.0711666216        0.0861124314
 Cl        -3.6272021571       -0.4992253030       -0.6254986291
 H          5.1685969288        0.8703795324       -0.9763250551
 H          4.2953117822        2.1732648841       -0.1798737892
 H          4.1868776652        1.9897969333       -1.9350864502
 H          2.9754836168       -0.1471651435       -1.6755242774
 H          2.1264304013        1.1085131394       -0.7848022762
 H          2.2735633011       -1.7143516797        1.5256108445
 H          0.4433213132       -2.9424480050        0.2762432685
 H         -1.9356494569       -2.7493926220       -0.3367504037
 H          0.6430296815        1.3044575058        0.7592024326
