! pbe def2-sv(p) def2/J RI DEFGRID1 loosescf d4 GCP(DFT/SV(P)) printgap
%output
    printlevel normal
end
* xyz 0 1
C -2.9176907029 0.1408337194 -1.0390044117
C -1.8476277646 0.1448753544 0.0498092932
C -2.0658805947 -0.9976277607 1.0384950272
C -0.4594338155 0.0375032272 -0.5877993583
O 0.5153521678 0.2405754627 0.4404137323
C 1.8206482786 0.1907083378 0.1966079028
O 2.5815807675 0.3754205983 1.1268682238
C 2.2892022949 -0.088957172 -1.2012879964
H -2.8740312176 -0.7837052113 -1.6092490332
H -2.7811126476 0.976426672 -1.7202187235
H -3.9028542263 0.2210717003 -0.5893494157
H -1.8861354982 1.0924557405 0.5955577065
H -1.2712399185 -1.0057550491 1.7805474415
H -2.0697036528 -1.9536962314 0.5198281704
H -3.0165215013 -0.8779668181 1.5503498847
H -0.327365168 -0.9531880247 -1.0336038411
H -0.3396252391 0.8023628637 -1.3612045467
H 3.3745046951 -0.0824812599 -1.2095324509
H 1.912037854 0.6705535559 -1.8821835836
H 1.9262745689 -1.0600381966 -1.5301185454
*
