  26
        -33.44977629
 C         -2.4114451604       -1.5476370972        0.1578368746
 C         -2.1679446705       -0.1093160041       -0.2908423111
 C         -3.4858469110        0.6236069373       -0.5202680267
 C         -1.3332747455        0.6404151904        0.7522607967
 O         -0.0449997729        0.0506937164        0.9209497295
 C          0.9101013849        0.4137422789        0.0596540125
 O          0.7597136570        1.2302577724       -0.8106816920
 C          2.1900450139       -0.3615521817        0.3164659956
 C          2.2409810832       -1.5101179693       -0.6955260895
 C          3.3977025433        0.5581830931        0.1652641432
 H         -3.0236867367       -1.5638724110        1.0572844450
 H         -1.4681020595       -2.0426343241        0.3759780818
 H         -2.9252671602       -2.1067909906       -0.6203142592
 H         -1.5980610419       -0.1174206051       -1.2260607191
 H         -4.0561995362        0.6783924542        0.4047529319
 H         -4.0823596917        0.0979686825       -1.2615055065
 H         -3.3067758139        1.6348509329       -0.8769448038
 H         -1.2062725818        1.6849379962        0.4491636757
 H         -1.8063686952        0.5915149049        1.7354228410
 H          2.1419598253       -0.7716518619        1.3288412988
 H          2.2386082936       -1.1126160408       -1.7079582225
 H          1.3817799403       -2.1665954266       -0.5760942618
 H          3.1468207236       -2.0942445798       -0.5512450838
 H          4.3193358601       -0.0112514326        0.2562953722
 H          3.3884237227        1.3321225516        0.9291618154
 H          3.3721295549        1.0381039349       -0.8099024010
