  22
        -36.57694546
 C         -4.0734524677        0.4330890550        0.9479954106
 C         -3.4376836693        0.5451845845       -0.4306859996
 O         -2.0207308093        0.6797743228       -0.3438130337
 C         -1.3134269705       -0.4517804093       -0.1996830535
 O         -1.8145867329       -1.5509376436       -0.1643560126
 C          0.1405763340       -0.1999303173       -0.1032331710
 C          0.9939589346       -1.2932466392        0.0268924740
 C          2.3571251357       -1.1093298092        0.1206166091
 C          2.8895010102        0.1771153776        0.0861197023
 C          2.0384877930        1.2745886706       -0.0431325290
 C          0.6772589853        1.0866301774       -0.1368715919
 O          4.2209146294        0.4082674151        0.1747331120
 H         -3.7981077328        1.2886710654        1.5602066618
 H         -5.1546587270        0.3984111652        0.8493360891
 H         -3.7344730033       -0.4762426091        1.4380590034
 H         -3.7767040304        1.4447939153       -0.9491062157
 H         -3.6742539256       -0.3419572637       -1.0277743763
 H          0.5657682168       -2.2836669282        0.0520802950
 H          3.0172349345       -1.9608897625        0.2210660658
 H          2.4717263584        2.2617659284       -0.0674024007
 H          0.0178159427        1.9337913562       -0.2370677782
 H          4.6991881714       -0.4260788449        0.2596327944
  22
        -36.57672693
 C         -4.0747163221        0.4134402975       -0.9471823924
 C         -3.4399486563        0.5278536396        0.4317566503
 O         -2.0235769217        0.6698452243        0.3457665539
 C         -1.3110941333       -0.4592246433        0.1991279042
 O         -1.8085790945       -1.5595402705        0.1610801322
 C          0.1417448522       -0.2011547914        0.1030383244
 C          1.0031941942       -1.2904290062       -0.0320323125
 C          2.3633577613       -1.1018170514       -0.1257511660
 C          2.8889536422        0.1893831946       -0.0862512229
 C          2.0326617081        1.2797382409        0.0477034501
 C          0.6697411931        1.0864441331        0.1416025405
 O          4.2317258438        0.3368121181       -0.1812540057
 H         -3.7299692536       -0.4932603663       -1.4380772915
 H         -5.1557218068        0.3718828444       -0.8487274284
 H         -3.8047617541        1.2714054026       -1.5585725530
 H         -3.6720382372       -0.3610348827        1.0279508799
 H         -3.7839786289        1.4251855028        0.9509284490
 H          0.5786797050       -2.2821676392       -0.0606693394
 H          3.0419094255       -1.9331932500       -0.2300302907
 H          2.4426996316        2.2809663423        0.0779107723
 H          0.0073874379        1.9310960664        0.2453646710
 H          4.4690654239        1.2717079200       -0.1409572891
  22
        -36.57624976
 C         -4.1642277025       -0.7917990772        1.3656504093
 C         -3.4648391818       -0.1615166398        0.1761601474
 O         -2.0561878336       -0.2430883203        0.3866196947
 C         -1.2852683477        0.2752798382       -0.5795473481
 O         -1.7363724772        0.7860145348       -1.5782068078
 C          0.1583081870        0.1513502916       -0.2855585122
 C          0.6306516078       -0.4459815704        0.8825342039
 C          1.9847720851       -0.5401862923        1.1162557075
 C          2.8926134710       -0.0377494110        0.1841719883
 C          2.4244013609        0.5594696666       -0.9836022089
 C          1.0682069994        0.6519148778       -1.2139636518
 O          4.2146682370       -0.1517058687        0.4547596159
 H         -3.8979260089       -0.2654843947        2.2783705013
 H         -5.2400668946       -0.7399192891        1.2261339897
 H         -3.8680860288       -1.8326125371        1.4655877325
 H         -3.7448292628        0.8918485988        0.0595350750
 H         -3.7141007086       -0.6815473544       -0.7560484294
 H         -0.0730209510       -0.8337029542        1.6016982654
 H          2.3690092131       -0.9985577819        2.0135175890
 H          3.1287231145        0.9492618860       -1.7067626170
 H          0.6888738431        1.1117017260       -2.1137051350
 H          4.7358009953        0.2311982322       -0.2620903159
  22
        -36.57614852
 C         -4.1596594318        1.3325982452        0.6189045264
 C         -3.4719714512        0.2265920126       -0.1617037275
 O         -2.0619761414        0.4384805342       -0.1125815759
 C         -1.2759608833       -0.6448668898       -0.1840200725
 O         -1.7019114660       -1.7700097819       -0.3013101736
 C          0.1606537024       -0.3054050683       -0.0953981390
 C          1.0899118019       -1.3417726762       -0.1488909278
 C          2.4400858581       -1.0753983369       -0.0647893386
 C          2.8830175346        0.2376812751        0.0738423011
 C          1.9558731963        1.2783824322        0.1260933341
 C          0.6079233065        1.0081215574        0.0424923047
 O          4.1980761481        0.5487705432        0.1615809986
 H         -3.8386100260        1.3151906126        1.6571693406
 H         -3.9100787739        2.3012837798        0.1941369761
 H         -5.2360126957        1.1930375170        0.5777688433
 H         -3.7855715652        0.2353372586       -1.2121415830
 H         -3.6954508259       -0.7605260900        0.2576578939
 H          0.7305498969       -2.3537732795       -0.2562041983
 H          3.1593228916       -1.8828372890       -0.1054792818
 H          2.3201944423        2.2876760802        0.2328894745
 H         -0.1103495322        1.8111728714        0.0832919450
 H          4.7343280961       -0.2527190702        0.1148987471
  22
        -36.57599794
 C         -4.2062938053        1.4461404883        0.2066567060
 C         -3.4699138294        0.1331568589        0.0189604733
 O         -2.0677129559        0.3938225731        0.0548678395
 C         -1.2669015712       -0.6716466805       -0.0949807849
 O         -1.6884544474       -1.7933294405       -0.2524290072
 C          0.1676340169       -0.3178890686       -0.0453194675
 C          1.1100906538       -1.3369926902       -0.1862841072
 C          2.4570880377       -1.0567379361       -0.1466207752
 C          2.8872623574        0.2572926194        0.0359390551
 C          1.9497402540        1.2776951078        0.1769821741
 C          0.6003058604        0.9927672312        0.1367715462
 O          4.2199757298        0.4954210865        0.0697152089
 H         -3.9390669426        1.8920114414        1.1610387605
 H         -3.9429172206        2.1399697887       -0.5872492963
 H         -5.2777747781        1.2701888558        0.1840848874
 H         -3.7190556703       -0.3312728665       -0.9421469320
 H         -3.7174583743       -0.5812318110        0.8126004124
 H          0.7583874952       -2.3475180304       -0.3266260648
 H          3.1977148457       -1.8328551056       -0.2538438155
 H          2.2858690268        2.2967931345        0.3184440286
 H         -0.1253039826        1.7830545379        0.2459819550
 H          4.3880114312        1.4370603098        0.2003737118
  22
        -36.57590172
 C         -4.1203122153       -0.9988105824        1.1523012317
 C         -3.4705435352        0.1027141602        0.3322056900
 O         -2.0548281644        0.0395690710        0.4998842985
 C         -1.2907904757        0.2619434717       -0.5801076210
 O         -1.7369956483        0.5259440291       -1.6715508103
 C          0.1529107531        0.1462946170       -0.2803827131
 C          0.6229555460       -0.2021499336        0.9828523173
 C          1.9796270041       -0.2982991710        1.2152955397
 C          2.8875105467       -0.0467717156        0.1893810444
 C          2.4199963599        0.3018194155       -1.0774587973
 C          1.0659136113        0.3956058858       -1.3056229688
 O          4.2261029205       -0.1291634286        0.3771177011
 H         -3.7816148041       -1.9733124654        0.8097691102
 H         -3.8593752344       -0.8885831664        2.2016191169
 H         -5.1999590833       -0.9419358913        1.0471163776
 H         -3.8062758639        1.0893467068        0.6711585649
 H         -3.7032497030       -0.0012106726       -0.7329923813
 H         -0.0791234318       -0.3971169745        1.7778221376
 H          2.3445704891       -0.5699664969        2.1974247361
 H          3.1378055274        0.4926962156       -1.8589248577
 H          0.6857179576        0.6640281710       -2.2792438252
 H          4.4211070437       -0.3767855038        1.2896030066
