  22
        -36.57694546
 C         -4.0734524677        0.4330890550        0.9479954106
 C         -3.4376836693        0.5451845845       -0.4306859996
 O         -2.0207308093        0.6797743228       -0.3438130337
 C         -1.3134269705       -0.4517804093       -0.1996830535
 O         -1.8145867329       -1.5509376436       -0.1643560126
 C          0.1405763340       -0.1999303173       -0.1032331710
 C          0.9939589346       -1.2932466392        0.0268924740
 C          2.3571251357       -1.1093298092        0.1206166091
 C          2.8895010102        0.1771153776        0.0861197023
 C          2.0384877930        1.2745886706       -0.0431325290
 C          0.6772589853        1.0866301774       -0.1368715919
 O          4.2209146294        0.4082674151        0.1747331120
 H         -3.7981077328        1.2886710654        1.5602066618
 H         -5.1546587270        0.3984111652        0.8493360891
 H         -3.7344730033       -0.4762426091        1.4380590034
 H         -3.7767040304        1.4447939153       -0.9491062157
 H         -3.6742539256       -0.3419572637       -1.0277743763
 H          0.5657682168       -2.2836669282        0.0520802950
 H          3.0172349345       -1.9608897625        0.2210660658
 H          2.4717263584        2.2617659284       -0.0674024007
 H          0.0178159427        1.9337913562       -0.2370677782
 H          4.6991881714       -0.4260788449        0.2596327944
