! pbe def2-sv(p) def2/J RI DEFGRID1 loosescf d4 GCP(DFT/SV(P)) printgap
%output
    printlevel normal
end
* xyz 0 1
C 2.3999913818 0.6073872454 -0.6567414571
C 1.0761738033 -0.0922728236 -0.3361184886
H 0.7246977453 -0.6136834706 -1.231446703
C 0.0315750365 0.9404058176 0.1148539209
C -1.430996573 0.4685958858 0.1566304582
C -1.9171019226 -0.0181750563 -1.2076258911
C -1.6612621929 -0.6052903436 1.2175858655
O 1.27715249 -1.1259053738 0.6124109197
H 2.2801665236 1.2683296378 -1.5097143112
H 2.7353098833 1.1937245278 0.1965406406
H 3.159068221 -0.134625285 -0.8926777248
H 0.3099168669 1.2993562484 1.1095821373
H 0.0943675211 1.7871110019 -0.5714454712
H -2.0291677543 1.3474571993 0.4295751422
H -1.4537242625 -0.9667402515 -1.4667357009
H -1.6835427052 0.708612867 -1.9822257629
H -2.9943311987 -0.1658166934 -1.1878139399
H -1.0529378168 -1.4813072954 1.0089016558
H -1.4017553004 -0.2304979842 2.2051292737
H -2.7072044886 -0.9033784033 1.2291521555
H 1.6402200865 -0.7355938152 1.4196082235
*
