! pbe def2-sv(p) def2/J RI DEFGRID1 loosescf d4 GCP(DFT/SV(P)) printgap
%output
    printlevel normal
end
* xyz 0 1
C -2.1198500506 1.3401770914 0.0087597791
C -1.9040417372 -0.1279028999 0.3765089583
C -0.5546954719 -0.6228716676 -0.0793285513
O -0.3825966085 -1.5858218585 -0.800660364
O 0.4332152131 0.1142263917 0.4025587699
C 1.7837675956 -0.2200404482 0.0420318074
C 2.6214358411 1.0447649493 0.0802011158
H -2.0758714176 1.4722824319 -1.0695153618
H -3.0952192124 1.6645698458 0.3586962497
H -1.3550353292 1.958860721 0.4690184955
H -2.6641777396 -0.7614115952 -0.0801187574
H -1.948683266 -0.2417322801 1.4607952108
H 2.1478021539 -0.9595620301 0.7620680079
H 1.775421081 -0.6767188215 -0.9529504253
H 3.6503271725 0.7999947222 -0.1619632882
H 2.2471399195 1.7659894296 -0.6406941278
H 2.5809673355 1.4858780004 1.071649241
*
