! r2scan-3c def2/J RI DEFGRID2 scfconv6 printgap
%output
    printlevel normal
end
* xyz 0 1
C -2.1698618227 1.0857466266 0.5505938109
C -2.0857626314 -0.2926708883 -0.0936872058
C -0.8275592571 -0.4361979123 -0.9559632341
C 0.4143041068 -0.4154015839 -0.1036672914
O 0.6100108026 -1.1202578131 0.8642392762
O 1.2930792534 0.4825625495 -0.5371983978
C 2.5295553332 0.6021734672 0.1710621168
H -1.3194922257 1.2494602992 1.2099891734
H -2.1708785125 1.8636145647 -0.2091643723
H -3.0794355432 1.1741004302 1.138540724
H -2.9624984329 -0.4587631038 -0.719963225
H -2.0658601001 -1.0603154328 0.6821887227
H -0.7596212526 0.366174181 -1.689543874
H -0.8507262139 -1.3970684557 -1.4731350942
H 3.0004971301 1.5034869676 -0.2083226462
H 3.1515858728 -0.2726737949 -0.0207732661
H 2.3408074704 0.6761602976 1.2427903593
*
