! pbe def2-sv(p) def2/J RI DEFGRID1 loosescf d4 GCP(DFT/SV(P)) printgap
%output
    printlevel normal
end
* xyz 0 1
C 1.5775461316 -0.3470596739 -1.1174628153
C 1.3133936772 -0.1138524409 0.3692684948
H 2.1165702713 -0.6212238291 0.9363445271
C -0.0001554401 -0.7087913872 0.9033387748
C -1.3422711641 -0.3468536107 0.2416341431
C -1.5115425746 1.1532031771 0.0187112022
C -1.6181520897 -1.1223370537 -1.0470618193
O 1.3492395332 1.2665814626 0.697077766
H 1.4090604193 -1.3903062836 -1.3648659365
H 0.9276000563 0.277203369 -1.7234002046
H 2.6103143163 -0.0981929167 -1.3551808833
H 0.10523047 -1.795524551 0.8910838248
H -0.0544438403 -0.3936661717 1.9486675599
H -2.106851792 -0.6591911868 0.9652501711
H -2.5310599564 1.3722696404 -0.2921062024
H -0.8333457458 1.5132886258 -0.7490713135
H -1.298397733 1.6990330101 0.9339490748
H -1.4485231567 -2.1861642494 -0.8974607117
H -2.6564140151 -0.9818158115 -1.3405732367
H -0.9911983873 -0.782761769 -1.8643634669
H 2.1763499801 1.6461105813 0.3726708579
*
