! r2scan-3c def2/J RI DEFGRID2 scfconv6 printgap
%output
    printlevel normal
end
%cpcm
    smd true
    smdsolvent "water"
end
* xyz 0 1
C 1.4785702831 -1.451628409 -0.0426153414
C 1.2060678162 -0.0266301566 0.4354775352
C 1.7419919445 0.9867877979 -0.5746693455
C -0.2783955007 0.2041631799 0.7520257945
C -1.2271199978 0.0455601092 -0.4372151757
O -2.5837846036 0.1818370092 -0.0588895769
H 2.5501362992 -1.623929215 -0.1093216576
H 1.0475475528 -1.6198667579 -1.0261056739
H 1.0567485673 -2.1761116063 0.6497184943
H 1.7477166592 0.1199478604 1.3777018927
H 1.5223824642 2.0026099009 -0.2549729046
H 1.3006475742 0.8265438335 -1.55493077
H 2.8202550944 0.8835466086 -0.6691542
H -0.3940237059 1.2132958698 1.1571477969
H -0.5908720505 -0.5013597746 1.525774901
H -0.9877221051 0.7729195005 -1.2230198301
H -1.1543362404 -0.9591559207 -0.8572703056
H -2.7139989268 1.055949939 0.3342618564
*
