! r2scan-3c def2/J RI DEFGRID2 scfconv6 printgap
%output
    printlevel normal
end
* xyz 0 1
C -0.3345119406 -2.7092461587 -0.1445244796
C 0.4825701202 -1.4625441461 -0.02799066
C 1.8524447866 -1.4136459028 -0.3316344148
N 2.5610753736 -0.3064836631 -0.2071487673
C 1.9437960392 0.8068297606 0.2192797482
N 0.6265444178 0.8722586238 0.4956567953
C -0.0578315875 -0.2436685742 0.3607413176
O -1.4068872124 -0.1318068272 0.6859876371
C -2.2789694795 -0.1065250524 -0.3634714441
O -1.9088051454 -0.2097860738 -1.5240473936
N -3.5470302723 0.0353536779 0.0243524355
C -4.6049876039 0.0686891048 -0.9632710052
C -3.9675874055 0.1621165384 1.403074119
N 2.6747415835 1.9149027849 0.3736677454
C 4.0873707463 1.9416834457 0.0805021656
C 2.0959976989 3.161813446 0.8095647421
C 2.5830845035 -2.6229269086 -0.8153623451
H 0.2324180696 -3.5724270892 0.1940104837
H -1.239778895 -2.6228486797 0.4530976446
H -0.6270666546 -2.8681849922 -1.1832832803
H -5.1298651543 1.0226043523 -0.9099289132
H -5.3080506024 -0.7429788746 -0.7758253261
H -4.1628289858 -0.0493640581 -1.9494885267
H -4.5726287618 -0.701569897 1.6828957581
H -4.5653882811 1.066998087 1.5124891246
H -3.0984005939 0.2221693723 2.0500377729
H 4.4001642996 0.9495234007 -0.2280226753
H 4.6408542159 2.2444140749 0.9706057817
H 4.2857828411 2.6558302118 -0.7205523271
H 2.5887434821 3.4963690546 1.7239325137
H 1.0376181104 3.0123159141 0.9970025788
H 2.2272335074 3.9218296709 0.0371312992
H 3.6030798142 -2.3503145533 -1.0647813724
H 2.5937226442 -3.3861921343 -0.0398917985
H 2.0849797806 -3.0327019296 -1.6907228207
*
