  11
        -12.87779268
 C          1.0947553972       -0.0040824605        0.0590963689
 C         -0.0116522017        1.0505897119       -0.0738837377
 N         -1.0141450959        0.0037633731        0.1413229094
 C         -0.0195172774       -1.0504575059       -0.0738771432
 H          1.5714296841       -0.0057569126        1.0349614061
 H          1.8528536151       -0.0069060904       -0.7197822262
 H         -0.0452610328        1.8271118503        0.6931721049
 H         -0.0392860793        1.5238959703       -1.0622885531
 H         -1.8114332883        0.0067728434       -0.4842903466
 H         -0.0588179210       -1.8267463332        0.6931510598
 H         -0.0505985281       -1.5235959849       -1.0622735207
