! r2scan-3c def2/J RI DEFGRID2 scfconv6 printgap
%output
    printlevel normal
end
* xyz 0 1
C -1.3019884262 0.0546196029 0.5461797282
C 0.1001693616 0.6868619882 0.630454662
C 1.2073907849 -0.3809269839 0.6566340497
O 1.2361763524 -1.2246959048 -0.4653024601
O 0.3206656816 1.5394958532 -0.476426504
O -1.4876944947 -0.6682422938 -0.6510834377
H -2.0635524761 0.8419704354 0.630565967
H -1.4414271736 -0.6546947819 1.3635005927
H 0.173968819 1.2467121498 1.5726795849
H 1.0883301842 -0.9697623594 1.5777257024
H 2.1787560401 0.1191377484 0.6782440703
H 0.3306557011 -1.5420139038 -0.6313093063
H -0.1816498848 2.3579528412 -0.3639995735
H -1.2490781427 -0.0853945048 -1.3895586211
*
