  24
        -35.06455831
 C          3.6334685679        0.7057146192       -0.0000394484
 C          3.6334698248       -0.7057103094       -0.0000718136
 C          2.4600854914       -1.3950410626       -0.0000205039
 C          1.2151830848       -0.7152349480        0.0000342635
 C          0.0000017211       -1.3944505483        0.0000556031
 C         -1.2151796437       -0.7152349545        0.0000380778
 C         -2.4600865273       -1.3950420687        0.0000138128
 C         -3.6334669775       -0.7057138424       -0.0000418046
 C         -3.6334697938        0.7057142275       -0.0000613542
 C         -2.4600892430        1.3950417023       -0.0000181467
 C         -1.2151842393        0.7152346236        0.0000286114
 C         -0.0000008213        1.3944494977        0.0000481857
 C          1.2151807432        0.7152331198        0.0000415731
 C          2.4600872532        1.3950404110        0.0000178435
 H          4.5775645064        1.2309381243       -0.0000820747
 H          4.5775646997       -1.2309334783       -0.0001123026
 H          2.4539439367       -2.4760021535       -0.0000141284
 H          0.0000120408       -2.4761923154        0.0000608679
 H         -2.4539568630       -2.4760036608        0.0000298218
 H         -4.5775476020       -1.2309602172       -0.0000963352
 H         -4.5775568049        1.2309509105       -0.0001332472
 H         -2.4539521446        2.4760042470       -0.0000269658
 H          0.0000002927        2.4761903184        0.0000573221
 H          2.4539346064        2.4760026577        0.0000203179
