  24
        -30.47696708
 C          2.1812290416       -2.0467443322       -0.0428647412
 C          1.1947074495       -0.9361071273        0.1065520596
 C          1.5407504199        0.3495744027       -0.0162365828
 C          0.5944375272        1.4549267786        0.1270246829
 O          0.9119064062        2.6119492432       -0.0539480909
 C         -0.8040004979        1.0623919217        0.5564573679
 C         -1.2452381678       -0.2896082340       -0.0109214052
 C         -0.2137547408       -1.3450655805        0.4103125233
 C         -1.3284299948       -0.2134365593       -1.5368582191
 C         -2.6193176308       -0.6618690186        0.5498079043
 H          2.1354702389       -2.7094136162        0.8207228271
 H          3.1937684004       -1.6664156805       -0.1456535190
 H          1.9398453479       -2.6410464246       -0.9244065280
 H          2.5585218257        0.6330554491       -0.2458169121
 H         -0.7939272356        1.0125919902        1.6502208898
 H         -1.4964140645        1.8553642443        0.2684782480
 H         -0.2927454650       -1.5113294870        1.4908521551
 H         -0.4331984784       -2.2982243993       -0.0768526273
 H         -1.6548532606       -1.1662728454       -1.9488882504
 H         -0.3611436836        0.0359689391       -1.9661385428
 H         -2.0411028559        0.5506946035       -1.8380315654
 H         -3.3614996601        0.0766674155        0.2563791325
 H         -2.5959614081       -0.7089174476        1.6366514912
 H         -2.9351270448       -1.6318689060        0.1714840949
  24
        -30.47540939
 C          2.2106408966       -2.0365113489       -0.0108110596
 C          1.1904295120       -0.9451270193        0.1009558353
 C          1.5362078784        0.3417923531       -0.0221814565
 C          0.5934448768        1.4483108360        0.1221310246
 O          0.9101145058        2.6048197006       -0.0646503082
 C         -0.7994019619        1.0561318707        0.5692301778
 C         -1.2501844782       -0.2864254707       -0.0119988734
 C         -0.2209548456       -1.3549683576        0.3818263944
 C         -1.3458799693       -0.1874635736       -1.5360257215
 C         -2.6209547991       -0.6614650024        0.5549997221
 H          1.7477960809       -3.0195010761        0.0138176765
 H          2.9218637681       -1.9688850710        0.8118065081
 H          2.7748663902       -1.9371832696       -0.9363326680
 H          2.5571874907        0.6215598082       -0.2428346255
 H         -0.7732066221        0.9908326059        1.6618273480
 H         -1.4943062774        1.8539875041        0.3016864437
 H         -0.3050729727       -1.5609041749        1.4553851189
 H         -0.4423320899       -2.2893188781       -0.1402068650
 H         -2.0530845764        0.5881843988       -1.8201443745
 H         -1.6851286237       -1.1308868287       -1.9590802153
 H         -0.3796011330        0.0582776854       -1.9696212777
 H         -2.9415773398       -1.6270835322        0.1695436887
 H         -3.3636216772        0.0814097305        0.2740608316
 H         -2.5898546075       -0.7189875446        1.6411542580
  24
        -30.46786951
 C          2.1096669275       -2.0863553561        0.4596109033
 C          1.2191182757       -0.9213256771        0.1769678985
 C          1.5865226728        0.3429267791        0.3922053566
 C          0.6632870594        1.4470248562        0.1298744360
 O          1.0098814753        2.5634573823       -0.1869028065
 C         -0.7815314012        1.0842171076        0.4002077065
 C         -1.2539616134       -0.2648211952       -0.1784329727
 C         -0.0863943027       -1.2310451698       -0.4888385551
 C         -2.0272678158       -0.0030785710       -1.4751697976
 C         -2.1914507306       -0.9280802812        0.8371588050
 H          2.2659559940       -2.6731279846       -0.4451104410
 H          1.6413781149       -2.7386562300        1.1969804482
 H          3.0737899992       -1.7622490453        0.8416315835
 H          2.5738107707        0.5991711204        0.7469021243
 H         -0.8597190653        1.0570267442        1.4916072544
 H         -1.4220535805        1.8934989418        0.0470352504
 H         -0.3888008293       -2.2513120749       -0.2443999711
 H          0.1078959913       -1.2133411535       -1.5666246435
 H         -2.9264572703        0.5754167989       -1.2743715193
 H         -2.3244290197       -0.9416923340       -1.9393299936
 H         -1.4117376940        0.5533783216       -2.1786630139
 H         -1.6466173489       -1.2026583895        1.7383807657
 H         -2.6393390674       -1.8266256589        0.4170324787
 H         -2.9937557886       -0.2475809568        1.1139023686
