! pbe def2-sv(p) def2/J RI DEFGRID1 loosescf d4 GCP(DFT/SV(P)) printgap
%output
    printlevel normal
end
* xyz 0 1
C -2.7159688893 0.0790640448 0.0216648942
C -1.389305764 -0.6546826131 0.018788418
S -3.40607e-05 0.5421763395 -0.0027845341
C 1.3894346158 -0.6546457511 -0.0081060289
C 2.7159171603 0.0792177927 -0.0263054125
H -2.805052684 0.7015199985 -0.8653047372
H -3.5327029432 -0.63834623 0.0338827005
H -2.7925295017 0.7172998907 0.8985392749
H -1.2867695625 -1.2816237402 -0.8677036965
H -1.2736005898 -1.2650307089 0.9151911278
H 1.289209155 -1.2671864766 0.8886707347
H 1.2716562273 -1.2794547319 -0.8942254317
H 3.532794054 -0.6381277591 -0.0299130951
H 2.7896241883 0.703796301 -0.9132108697
H 2.8075361966 0.7153454368 0.850660462
*
