  17
        -23.94845917
 C         -2.2715310459       -0.7428111640        0.8692076959
 C         -2.0882759150        0.2605746415       -0.2624028638
 C         -0.7972169895        0.0010856470       -1.0399516278
 C          0.4200301050        0.3081804430       -0.1986276400
 O          0.5486163747        1.2586071842        0.5258903635
 O          1.3713681518       -0.6203340258       -0.3721892868
 C          2.5803810337       -0.4235882742        0.3479484203
 H         -2.2997131835       -1.7591030358        0.4810535448
 H         -1.4506989184       -0.6666146617        1.5784959850
 H         -3.2007783671       -0.5512765771        1.4001610254
 H         -2.0487946480        1.2705465949        0.1486493770
 H         -2.9359856134        0.2011741583       -0.9474734677
 H         -0.7562033919        0.6565113960       -1.9135887281
 H         -0.7385583878       -1.0330717359       -1.3797331239
 H          3.2262868963       -1.2600193334        0.0943789187
 H          2.3824373522       -0.4026192244        1.4215363395
 H          3.0442287675        0.5216319138        0.0589839283
