  8
        -14.48301210
 C         -0.4623596079        0.5961521612        0.0001252616
 C          0.4623049020       -0.5960332703        0.0001172049
 Br         2.3167977252        0.0222521302       -0.0000228254
 Br        -2.3167872050       -0.0222727699       -0.0000228149
 H         -0.3327676597        1.2091884702       -0.8916362485
 H         -0.3329209643        1.2090280271        0.8919853078
 H          0.3328502275       -1.2089296976        0.8919887967
 H          0.3326562988       -1.2090673365       -0.8916090330
  8
        -14.47948993
 C         -0.6104363660        0.4443763453        1.2808602680
 C          0.6105835342       -0.4441166791        1.2810311230
 Br         1.7799619104       -0.0513482158       -0.2352699073
 Br        -1.7799882869        0.0512975169       -0.2352550296
 H         -0.3427797559        1.4980189663        1.2035336951
 H         -1.2009938526        0.2765214980        2.1822612680
 H          1.2012345209       -0.2757661232        2.1823135074
 H          0.3428763689       -1.4978494509        1.2043362808
