  8
  -14.4830121000000       0.954086722903584      !mtd4
 C         -0.4623596079        0.5961521612        0.0001252616
 C          0.4623049020       -0.5960332703        0.0001172049
 Br         2.3167977252        0.0222521302       -0.0000228254
 Br        -2.3167872050       -0.0222727699       -0.0000228149
 H         -0.3327676597        1.2091884702       -0.8916362485
 H         -0.3329209643        1.2090280271        0.8919853078
 H          0.3328502275       -1.2089296976        0.8919887967
 H          0.3326562988       -1.2090673365       -0.8916090330
  8
  -14.4794899300000       2.295676001117873E-002 !mtd9
 C         -0.6104363660        0.4443763453        1.2808602680
 C          0.6105835342       -0.4441166791        1.2810311230
 Br         1.7799619104       -0.0513482158       -0.2352699073
 Br        -1.7799882869        0.0512975169       -0.2352550296
 H         -0.3427797559        1.4980189663        1.2035336951
 H         -1.2009938526        0.2765214980        2.1822612680
 H          1.2012345209       -0.2757661232        2.1823135074
 H          0.3428763689       -1.4978494509        1.2043362808
  8
  -14.4794899200000       2.295651708523689E-002 !mtd7
 C         -0.6105150914        0.4447007390       -1.2810742344
 C          0.6105422116       -0.4436728040       -1.2812573811
 Br         1.7797975597       -0.0514349960        0.2353065670
 Br        -1.7798022909        0.0512475659        0.2352934959
 H         -1.2012541804        0.2766977166       -2.1824028256
 H         -0.3430281897        1.4983472189       -1.2035794339
 H          0.3429150257       -1.4974016071       -1.2047352687
 H          1.2014192363       -0.2750340484       -2.1824369453
