! r2scan-3c def2/J RI DEFGRID2 scfconv6 printgap
%output
    printlevel normal
end
* xyz 0 1
C -3.8279252756 0.1738039446 -0.1505529277
C -2.365417212 0.5829836887 -0.2875138521
C -1.4365588689 -0.5804746495 0.0505774761
C 0.0366904752 -0.265353589 0.0532386989
C 0.9143904992 -1.2052977013 0.5882343803
C 2.2779108251 -0.9819168214 0.6069656549
C 2.7947290733 0.1947836461 0.0897425698
C 1.9343932833 1.1367858056 -0.4439505324
C 0.567744705 0.9085832913 -0.4634771777
H -4.0550044629 -0.6576414548 -0.8143147421
H -4.045216697 -0.1334462724 0.8700973746
H -4.4815764728 1.0045091484 -0.4050084339
H -2.1599061245 1.4197367063 0.3836314382
H -2.1847469154 0.9145863894 -1.3117992463
H -1.6102779507 -1.3905826011 -0.6652567024
H -1.7036502479 -0.9687019037 1.037721655
H 0.5176968262 -2.1249607981 0.9951497399
H 2.9395260753 -1.7250111607 1.0275209334
H 3.8593241258 0.3745505657 0.1039292227
H 2.3269191296 2.0576708754 -0.8500514357
H -0.0800845946 1.659517457 -0.8871941523
*
