  15
        -16.90292567
 C         -2.1453288646       -0.7885805590        0.3774900415
 C         -1.2380914050       -0.2039389416       -0.6878280391
 S         -0.0001430751        0.9558612947       -0.0006327414
 C          1.2390146235       -0.2017740474        0.6882439193
 C          2.1446865143       -0.7898101151       -0.3766029215
 H         -2.8895450867       -1.4313115504       -0.0869664130
 H         -1.5777676681       -1.3800350159        1.0925947346
 H         -2.6536975132        0.0078192740        0.9155305552
 H         -1.8052734567        0.3969961356       -1.3970406449
 H         -0.6966831773       -0.9773249560       -1.2301524008
 H          1.8074603190        0.4016529014        1.3944063883
 H          0.6985975519       -0.9733961006        1.2340750807
 H          2.8909321146       -1.4290899945        0.0891939288
 H          1.5766480855       -1.3855749790       -1.0877339192
 H          2.6505335022        0.0050411194       -0.9193051277
  15
        -16.90291218
 C         -2.1575227177       -0.7767046285        0.3790207777
 C         -1.2383782496       -0.2102816502       -0.6860278706
 S          0.0000894687        0.9505445113       -0.0009689526
 C          1.2383931390       -0.2089337340        0.6865970976
 C          2.1573025318       -0.7774535929       -0.3775502527
 H         -1.5979124892       -1.3552370898        1.1108169831
 H         -2.6716494248        0.0290949388        0.8972381491
 H         -2.8967204480       -1.4274568236       -0.0822475834
 H         -1.7968796236        0.3839560080       -1.4076605038
 H         -0.6957312448       -0.9930585965       -1.2133988928
 H          1.7970561315        0.3868803688        1.4068041199
 H          0.6957651252       -0.9906066330        1.2156468647
 H          2.6713368107        0.0272204248       -0.8976435268
 H          2.8965905922       -1.4271065634        0.0850227405
 H          1.5977447113       -1.3576313350       -1.1080597760
  15
        -16.90290448
 C         -2.1264445692       -0.8075128698        0.3755257645
 C         -1.2398571167       -0.1927604632       -0.6901917209
 S          0.0002400774        0.9635041127       -0.0010472069
 C          1.2398360281       -0.1914312969        0.6909028553
 C          2.1260014810       -0.8081055560       -0.3740337209
 H         -2.8782555543       -1.4387068707       -0.0925274531
 H         -1.5455265667       -1.4174580751        1.0637630958
 H         -2.6261405913       -0.0263744985        0.9433734666
 H         -1.8232790064        0.4202416996       -1.3756820951
 H         -0.7028809292       -0.9493067574       -1.2599761263
 H          1.8228597113        0.4232725492        1.3752151212
 H          0.7025759995       -0.9467908819        1.2620944844
 H          2.6260076266       -0.0283563518       -0.9434436449
 H          2.8774339739       -1.4385420878        0.0955177383
 H          1.5450991349       -1.4191758544       -1.0612739778
  15
        -16.90214348
 C         -1.7773290812       -1.1536450597        0.1869755782
 C         -1.5005300641        0.1865067139       -0.4657993126
 S          0.0178932638        1.0028481919        0.1471842132
 C          1.3334865570       -0.0747041460       -0.5407137220
 C          1.9047410716       -1.0279320985        0.4923784699
 H         -1.7838514436       -1.0504526324        1.2695054991
 H         -2.7488597120       -1.5211376641       -0.1358214730
 H         -1.0234235348       -1.8858781229       -0.0918546398
 H         -2.2883040580        0.9025171429       -0.2345790362
 H         -1.4056141859        0.0990021692       -1.5482417801
 H          0.8988469475       -0.6029492784       -1.3873847174
 H          2.1028249621        0.6073597416       -0.9016358471
 H          2.3205141343       -0.4681716084        1.3265812372
 H          1.1364791375       -1.6935564683        0.8769628599
 H          2.6944177486       -1.6258473830        0.0426814256
  15
        -16.90180746
 C         -1.8540006862       -1.1230093690       -0.3355738854
 C         -1.4531908843        0.1166180784        0.4414444370
 S          0.0116097190        0.9750437112       -0.2459077328
 C          1.4070360718        0.1204413204        0.5768473290
 C          1.8751354131       -1.1247013781       -0.1521162896
 H         -2.7924667427       -1.5098105588        0.0555343798
 H         -1.9860687719       -0.8794706570       -1.3869316557
 H         -1.0991656088       -1.9002573315       -0.2525354081
 H         -1.2326864296       -0.1090376125        1.4840888797
 H         -2.2428646459        0.8663945521        0.3986925634
 H          2.1979390827        0.8697116296        0.6004691737
 H          1.0928992870       -0.0978151719        1.5968272097
 H          2.1017181695       -0.8887768659       -1.1889246388
 H          2.7741409343       -1.5087738620        0.3248004104
 H          1.1153664825       -1.9012764609       -0.1318696439
  15
        -16.90174080
 C         -2.2275442250       -0.8444001192        0.2310368337
 C         -1.5359760931        0.5017526566        0.3320253470
 S          0.0513529823        0.5636473923       -0.5732746721
 C          1.0938003499       -0.4887548396        0.5099053195
 C          2.5537737225       -0.3341805220        0.1312609359
 H         -3.2031050499       -0.7898614569        0.7083784262
 H         -2.3621129834       -1.1195862323       -0.8123282383
 H         -1.6452138885       -1.6192295894        0.7239229678
 H         -1.3294652217        0.7753891075        1.3668075735
 H         -2.1360094679        1.2837806839       -0.1314780536
 H          0.9151010352       -0.1632273495        1.5348713343
 H          0.7663569699       -1.5206966749        0.3857533757
 H          3.1693132489       -0.9574671084        0.7752107177
 H          2.7088364786       -0.6330098954       -0.9026749003
 H          2.8642773955        0.7022757745        0.2389287676
  15
        -16.90141393
 C         -2.2549864125       -0.7928595185        0.2199842265
 C         -1.4461761906        0.4640993317        0.4760380984
 S          0.0338525642        0.5799424301       -0.5923801774
 C          1.1154731532       -0.7107362514        0.1460299418
 C          2.5088346337       -0.1657865016        0.3947756846
 H         -2.5590384550       -0.8366604005       -0.8230235930
 H         -1.6724593393       -1.6829718727        0.4472204103
 H         -3.1441375888       -0.7903514062        0.8461902510
 H         -1.1069570319        0.5290846009        1.5097263539
 H         -2.0215079084        1.3561607497        0.2320085782
 H          0.6435038693       -1.0195132549        1.0764029007
 H          1.1396279031       -1.5497858744       -0.5488808633
 H          2.9573841791        0.1640926100       -0.5390254736
 H          2.4672627685        0.6827082885        1.0735659007
 H          3.1352085889       -0.9397057103        0.8325356748
  15
        -16.90043122
 C         -2.7159688893        0.0790640448        0.0216648942
 C         -1.3893057640       -0.6546826131        0.0187884180
 S         -0.0000340607        0.5421763395       -0.0027845341
 C          1.3894346158       -0.6546457511       -0.0081060289
 C          2.7159171603        0.0792177927       -0.0263054125
 H         -2.8050526840        0.7015199985       -0.8653047372
 H         -3.5327029432       -0.6383462300        0.0338827005
 H         -2.7925295017        0.7172998907        0.8985392749
 H         -1.2867695625       -1.2816237402       -0.8677036965
 H         -1.2736005898       -1.2650307089        0.9151911278
 H          1.2892091550       -1.2671864766        0.8886707347
 H          1.2716562273       -1.2794547319       -0.8942254317
 H          3.5327940540       -0.6381277591       -0.0299130951
 H          2.7896241883        0.7037963010       -0.9132108697
 H          2.8075361966        0.7153454368        0.8506604620
