  14
        -17.24131133
 C         -3.4352537867        0.5955146417       -0.1516899574
 C         -2.0579339551        0.2793062142        0.4164092833
 C         -1.3910827549       -0.8705752309       -0.3348774264
 C         -0.0286084506       -1.2286485784        0.2272874489
 Br         1.2650197369        0.2176589964       -0.0275049044
 H         -4.0893262262       -0.2711016434       -0.0785222796
 H         -3.8912930650        1.4170116454        0.3949396551
 H         -3.3598556631        0.8809486789       -1.1985688321
 H         -2.1514235077        0.0150453026        1.4730551524
 H         -1.4279595407        1.1690309542        0.3488412211
 H         -2.0207288328       -1.7630796111       -0.2681526614
 H         -1.2947934400       -0.6091860281       -1.3915971573
 H          0.3980471148       -2.0969453869       -0.2734286091
 H         -0.0707410732       -1.4061951601        1.3014712917
  14
        -17.24105278
 C         -3.8305149757        0.7684995479       -0.0874859062
 C         -2.7267929579       -0.1153051915        0.4800174677
 C         -1.3543498219        0.2970282773       -0.0509391392
 C         -0.2651524299       -0.5903157226        0.5198873542
 Br         1.4951096700       -0.0690560194       -0.1548569378
 H         -3.6638757774        1.8086977226        0.1830219661
 H         -3.8570048310        0.6967962857       -1.1724147406
 H         -4.7990384048        0.4634172216        0.3007550980
 H         -2.9209450026       -1.1569680533        0.2132155916
 H         -2.7296319537       -0.0462688780        1.5704981715
 H         -1.3487774504        0.2274563409       -1.1414602980
 H         -1.1565308182        1.3377422855        0.2172927913
 H         -0.4027875422       -1.6328179745        0.2344537289
 H         -0.2083969463       -0.5124112678        1.6052093415
  14
        -17.24048193
 C         -2.8723790376        0.5963893960       -0.5867400643
 C         -2.1038071039        0.1480262387        0.6510830563
 C         -1.3135341742       -1.1433512700        0.4381621135
 C         -0.1845398009       -1.0199783655       -0.5684344789
 Br         1.1817374391        0.2506288237        0.0226822358
 H         -2.1989677385        0.8911615111       -1.3879111037
 H         -3.5154730630       -0.2029842816       -0.9505313996
 H         -3.4956313708        1.4541897445       -0.3464216283
 H         -2.8103304915       -0.0179161255        1.4672216194
 H         -1.4220707999        0.9419214529        0.9638550845
 H         -0.9020050593       -1.4710542361        1.3961966571
 H         -1.9876597841       -1.9267717141        0.0786501035
 H         -0.5333978350       -0.6591875982       -1.5339477196
 H          0.3329336277       -1.9696419810       -0.6996363298
  14
        -17.24038664
 C         -3.4061558476        0.6819818071       -0.5239689610
 C         -2.7729095776       -0.0974704415        0.6230652790
 C         -1.2772881939        0.1798665823        0.7890077368
 C         -0.4678554676       -0.3519438438       -0.3790250905
 Br         1.4466874316       -0.0789270804       -0.0812242936
 H         -3.0137947817        0.3606663497       -1.4856184497
 H         -4.4821314228        0.5259842241       -0.5325810930
 H         -3.2171279621        1.7473320192       -0.4111949714
 H         -2.9282665125       -1.1677899943        0.4677399336
 H         -3.2726293232        0.1763076348        1.5545228967
 H         -1.1134709461        1.2558518436        0.8865810270
 H         -0.9276901490       -0.2948122476        1.7093814439
 H         -0.6987589524        0.1639709260       -1.3088896869
 H         -0.6045258211       -1.4252710423       -0.5072865578
  14
        -17.23859451
 C         -2.2814564939        0.9564373277        0.1167424608
 C         -2.4440938787       -0.5526107028        0.2550879934
 C         -1.2595058029       -1.3582779028       -0.2821410663
 C          0.0336642530       -1.1684713344        0.4962231875
 Br         1.0806397590        0.3724182789       -0.1084980521
 H         -3.2088894331        1.4558868776        0.3875087339
 H         -1.4974198280        1.3344033577        0.7669150122
 H         -2.0356367380        1.2234033593       -0.9086640997
 H         -3.3348209100       -0.8647011905       -0.2953429580
 H         -2.6030598292       -0.8078342145        1.3062715303
 H         -1.5168043100       -2.4205680995       -0.2279889689
 H         -1.0966293817       -1.1143427643       -1.3344379352
 H          0.6983835182       -2.0218396344        0.3674475290
 H         -0.1538788396       -1.0103097246        1.5575315679
  14
        -17.23785345
 C         -2.4631039263        0.9234085220        0.1185719690
 C         -2.2366280784       -0.4546006067       -0.4944149558
 C         -1.2761476283       -1.3325848175        0.3211920993
 C          0.1549435321       -1.3325680809       -0.1855046960
 Br         1.0588589418        0.3868718462        0.0425124473
 H         -1.5367880411        1.4858757676        0.1863179382
 H         -3.1606703950        1.4919114473       -0.4921994542
 H         -2.8836152932        0.8293379784        1.1177638648
 H         -1.8529208003       -0.3413801786       -1.5110353771
 H         -3.2009776384       -0.9620674446       -0.5676459568
 H         -1.2955075036       -1.0232235038        1.3684797100
 H         -1.6108729479       -2.3734834436        0.2800456642
 H          0.2003140403       -1.5523128675       -1.2517903564
 H          0.7643927055       -2.0514415717        0.3616743743
