  14
        -17.24131133
 C         -3.4352537867        0.5955146417       -0.1516899574
 C         -2.0579339551        0.2793062142        0.4164092833
 C         -1.3910827549       -0.8705752309       -0.3348774264
 C         -0.0286084506       -1.2286485784        0.2272874489
 Br         1.2650197369        0.2176589964       -0.0275049044
 H         -4.0893262262       -0.2711016434       -0.0785222796
 H         -3.8912930650        1.4170116454        0.3949396551
 H         -3.3598556631        0.8809486789       -1.1985688321
 H         -2.1514235077        0.0150453026        1.4730551524
 H         -1.4279595407        1.1690309542        0.3488412211
 H         -2.0207288328       -1.7630796111       -0.2681526614
 H         -1.2947934400       -0.6091860281       -1.3915971573
 H          0.3980471148       -2.0969453869       -0.2734286091
 H         -0.0707410732       -1.4061951601        1.3014712917
