! pbe def2-sv(p) def2/J RI DEFGRID1 loosescf d4 GCP(DFT/SV(P)) printgap
%output
    printlevel normal
end
* xyz 0 1
C -1.7910289295 0.4163280358 1.0288024076
C -1.3424702133 -0.3933279544 -0.1866305393
C -1.4200753932 0.4647751206 -1.4478353594
C -0.0003965951 -1.1269493037 0.0006431871
C 1.3421558142 -0.3937588685 0.1867415323
C 1.7897877348 0.4155074056 -1.0293372095
C 1.4218917419 0.4645346877 1.4477235567
H -2.8440416903 0.6725098747 0.9294853738
H -1.6641552699 -0.156190689 1.9440670024
H -1.2314877691 1.3421415987 1.1170531335
H -2.0719118754 -1.2061045806 -0.3106282098
H -1.0200173684 -0.0697593337 -2.3055243355
H -2.4579619536 0.7172511054 -1.6564334743
H -0.8708021205 1.393481737 -1.3276706909
H 0.1213184099 -1.7806343219 -0.8686791703
H -0.1222319975 -1.7799948725 0.8704179128
H 2.0712184962 -1.2068146581 0.3104302265
H 2.8443706121 0.667263609 -0.9336099274
H 1.6573215603 -0.155312014 -1.9449470204
H 1.2336261228 1.3437803721 -1.1142112908
H 0.8700217343 1.3919933491 1.3299534455
H 1.0263497109 -0.0710990715 2.3068102553
H 2.4600021859 0.7194665858 1.6522048078
*
