! r2scan-3c def2/J RI DEFGRID2 scfconv6 printgap
%output
    printlevel normal
end
%cpcm
    smd true
    smdsolvent "water"
end
* xyz 0 1
C 2.1410589213 -0.3914992122 1.2169393502
C 1.3375879762 -0.5033332539 -0.0744142971
C 0.286832973 0.6128862749 -0.2333502583
H 0.5492729238 1.4378457288 0.4403538052
C -1.1662453656 0.192606224 0.0880124147
C -1.7092254572 -0.8774066835 -0.8600126001
C -1.3070859729 -0.2627046115 1.5379567481
O 0.3601276521 1.2064278973 -1.5216559431
H 2.6615040761 0.5626666225 1.2572036548
H 2.8804791802 -1.1875295465 1.2651891777
H 1.4966787347 -0.4675050109 2.0879021513
H 2.0287570318 -0.426387201 -0.9169885132
H 0.8633620516 -1.4835582094 -0.1225424743
H -1.7712741006 1.0970377776 -0.0505086113
H -2.7385157449 -1.1053345611 -0.5939659638
H -1.7020597399 -0.530090215 -1.8902951398
H -1.1338291991 -1.7974655954 -0.7940095606
H -2.3563343421 -0.4209285569 1.7754269591
H -0.9120580739 0.4890314178 2.2169020223
H -0.7774489145 -1.1971952818 1.7020651594
H 0.1650474168 0.5297763688 -2.1842737327
*
