  15
        -17.73182768
 C          0.7563870026       -1.2549829532       -0.4721528486
 C          0.0014213419       -0.0000018830       -0.0172897687
 C         -1.4199983485       -0.0013572541       -0.5788970013
 C          0.7535680630        1.2569550205       -0.4713819244
 O         -0.1365299793       -0.0006419902        1.3964859743
 H          1.7714179350       -1.2552452326       -0.0769105280
 H          0.2453200450       -2.1446407638       -0.1118031261
 H          0.8078667392       -1.2944719755       -1.5566283693
 H         -1.9502177656       -0.8826173073       -0.2288049878
 H         -1.4005366923       -0.0015984072       -1.6647522177
 H         -1.9518603791        0.8790710973       -0.2291598488
 H          1.7688332899        1.2588711960       -0.0767688521
 H          0.8043256170        1.2976347537       -1.5558513920
 H          0.2409525362        2.1452494957       -0.1098434545
 H          0.7422356971        0.0006338926        1.7913519810
  15
        -17.72811219
 C          0.7700848631       -1.2654020235       -0.4762587034
 C          0.0039111933       -0.0034381044       -0.0190761028
 C         -1.4099621562        0.0060434452       -0.6132574704
 C          0.7529400090        1.2645536452       -0.4299958878
 O         -0.0749413892        0.0415100949        1.3996256059
 H          0.1671398265       -1.8732231070       -1.1461067193
 H          1.6888854492       -0.9988246479       -0.9903268105
 H          1.0376442824       -1.8687269796        0.3888372573
 H         -1.3642988598        0.0513973480       -1.6979797453
 H         -1.9592113572        0.8715715783       -0.2490393631
 H         -1.9515453465       -0.8941875682       -0.3243807265
 H          0.8620513101        1.3077936848       -1.5098475803
 H          0.2073537155        2.1402519881       -0.0888299456
 H          1.7352362329        1.2719902758        0.0342717916
 H         -0.6275973118       -0.6879111002        1.7008862394
