! pbe def2-sv(p) def2/J RI DEFGRID1 loosescf d4 GCP(DFT/SV(P)) printgap
%output
    printlevel normal
end
* xyz 0 1
C -1.050006138 -0.1775698988 0.7224248258
C 0.2438124953 0.562078528 0.3267582665
C 1.1490502172 -0.3613086494 -0.4988283704
O 1.6533246201 -1.3635791392 0.3552534115
O -0.0313384 1.7598344074 -0.3633798641
O -1.9021533407 -0.3824999196 -0.3837951319
H -1.5654144898 0.3776346983 1.5121108174
H -0.7760253543 -1.1641687131 1.1001246653
H 0.7753562504 0.8497582885 1.2384105116
H 1.9650986638 0.2365059411 -0.9259532967
H 0.5549682094 -0.8025371361 -1.3111240633
H 2.2046834004 -1.9711429617 -0.1570746519
H -0.42676972 1.5366351944 -1.219795874
H -2.370221497 0.4425175265 -0.573675345
*
