! r2scan-3c def2/J RI DEFGRID2 scfconv6 printgap
%output
    printlevel normal
end
* xyz 0 1
C -3.2280305127 0.4787680425 0.0772107097
C -1.893587167 -0.2387299639 0.2317107207
C -0.7322547456 0.6276177997 -0.265703878
C 0.5644833252 -0.1365803534 -0.2319650196
O 0.7276577915 -1.2464942226 -0.6948837612
O 1.521998941 0.5586831232 0.3700263959
C 2.8308642842 -0.0102069794 0.4836835824
H -4.0350364459 -0.1462365194 0.4494134473
H -3.2259150731 1.4100967707 0.6376263352
H -3.421170324 0.7046834825 -0.9682781591
H -1.8997728869 -1.171382244 -0.3355665103
H -1.7300482032 -0.4895752033 1.2815875558
H -0.6250305329 1.530089987 0.3347627703
H -0.9189349656 0.9108631029 -1.3039188865
H 3.5384905409 0.751507744 0.1651277502
H 2.904116645 -0.8980446583 -0.1452936274
H 3.0001487889 -0.2741794596 1.5266121978
*
