! pbe def2-sv(p) def2/J RI DEFGRID1 loosescf d4 GCP(DFT/SV(P)) printgap
%output
    printlevel normal
end
* xyz 0 1
C 5.7301220235 0.1674441619 -0.087253871
C 4.4579410023 -0.6709522321 -0.0844466057
C 3.2150499867 0.1964479883 -0.0502060468
O 3.2462457013 1.4141099217 -0.0322864084
N 2.0656882469 -0.5406903506 -0.0422026828
C 0.7447012985 -0.1067697135 -0.0143465997
C 0.3825409165 1.2396052459 0.0101494456
C -0.9501983665 1.6005401977 0.0371383324
C -1.9417990362 0.6323742408 0.0402695603
C -1.5869284227 -0.7109706021 0.0159012726
C -0.2559380273 -1.0807647535 -0.0112274496
Cl -2.812727167 -1.9365149041 0.0193869292
Cl -3.6136981833 1.0974055049 0.0743247642
H 5.7737112378 0.7890687532 0.8034540614
H 5.7455458736 0.8256515731 -0.95224342
H 6.6062980295 -0.4735504354 -0.1146326459
H 4.4461584934 -1.32691109 0.7878126499
H 4.4201263855 -1.2928959553 -0.9806042715
H 2.1763305851 -1.5469535796 -0.0590021866
H 1.147461041 1.9976567054 0.007987476
H -1.2287260447 2.6409638479 0.0560146641
H -0.0056951671 -2.129021603 -0.0298155991
*
