! r2scan-3c def2/J RI DEFGRID2 scfconv6 printgap
%output
    printlevel normal
end
* xyz 0 1
C -2.7877420644 0.226190386 0.0235445293
C -1.3882109934 -0.1865324916 -0.4125749958
C -0.3185860901 0.3963604807 0.5208701835
C 1.0424907488 -0.09477306 0.1126183668
O 1.4016542985 -1.2528693141 0.1600734256
O 1.8232535227 0.8728629489 -0.3401749594
H -2.8844452519 1.3087621928 0.0181332633
H -2.9961843333 -0.1347967206 1.0273315521
H -3.5287212228 -0.1900291146 -0.6534393499
H -1.2987283068 -1.2747160465 -0.4078069242
H -1.2035168991 0.1616493879 -1.4308348414
H -0.3293403265 1.4847142776 0.4846177108
H -0.5133959264 0.0580042801 1.539547866
H 2.6992130293 0.5520712854 -0.6317232108
*
