  18
        -18.93529220
 C          2.7213153586        0.5284534056        0.1379890994
 C          1.2588908130        0.4336882136       -0.2786627696
 C          0.6410597789       -0.9039567549        0.1205435122
 C         -0.8334881284       -0.9988481955       -0.2838791826
 C         -1.6745415505       -0.0037969288        0.4493387882
 C         -2.4312805613        0.9114882738       -0.1256157544
 H          3.1431653314        1.4860257065       -0.1582418933
 H          3.3039844504       -0.2627054107       -0.3297508314
 H          2.8179228361        0.4306688448        1.2173628477
 H          0.6920498199        1.2430876170        0.1866615419
 H          1.1808731157        0.5567279245       -1.3614451895
 H          1.1966691048       -1.7148118621       -0.3566449483
 H          0.7275824903       -1.0334927818        1.2021467555
 H         -0.9302733989       -0.8449931337       -1.3604592811
 H         -1.1962629174       -2.0047900966       -0.0505556445
 H         -1.6281000350       -0.0714043135        1.5292880247
 H         -3.0235862170        1.6069729226        0.4447748462
 H         -2.4939363123        1.0016370218       -1.1980614879
  18
        -18.93503552
 C          3.0295040342        0.2758566118        0.2061240240
 C          1.7806878355       -0.2125979944       -0.5175797949
 C          0.5174967658        0.0338330167        0.3031425060
 C         -0.7414591318       -0.4522435151       -0.4212330412
 C         -1.9658701823       -0.2173119394        0.4033439348
 C         -2.9831744590        0.5394121346        0.0381349204
 H          2.9635283517        1.3440115993        0.4015941425
 H          3.9175210416        0.0908653830       -0.3938891764
 H          3.1450386500       -0.2386199243        1.1577482463
 H          1.6933156583        0.3017691920       -1.4774691532
 H          1.8750165069       -1.2816742079       -0.7230552439
 H          0.6037252346       -0.4813767621        1.2628960156
 H          0.4203462251        1.1025608009        0.5085482196
 H         -0.8349039239        0.0620737647       -1.3797793534
 H         -0.6422570202       -1.5239568895       -0.6193783410
 H         -1.9731882847       -0.7105016138        1.3673325514
 H         -3.8441838415        0.6856791746        0.6681959764
 H         -3.0003425466        1.0430416910       -0.9149423638
  18
        -18.93452874
 C          2.0269958648        0.8045988207        0.5173171365
 C          1.3916335586        0.1435047991       -0.6999638218
 C          0.6395578975       -1.1436959723       -0.3604028456
 C         -0.6183460420       -0.9063120035        0.4825019691
 C         -1.6070956149       -0.0409021572       -0.2301643735
 C         -2.0959505788        1.0898376485        0.2425540272
 H          1.2674639646        1.1478347319        1.2143664724
 H          2.6183096553        1.6652808422        0.2128970361
 H          2.6808984891        0.1049354407        1.0341816604
 H          0.7027272550        0.8455904723       -1.1745995713
 H          2.1763470913       -0.0939723002       -1.4226100093
 H          0.3490417690       -1.6364041195       -1.2918113034
 H          1.3074754917       -1.8198553085        0.1785443497
 H         -1.0829040894       -1.8764824082        0.6858736610
 H         -0.3518094825       -0.4574480482        1.4398593250
 H         -1.9152981211       -0.4018742740       -1.2038292705
 H         -2.8096852346        1.6804798629       -0.3066528991
 H         -1.8059915036        1.4731374867        1.2076714452
  18
        -18.93419495
 C          2.6111224529       -0.3379707335       -0.6585566243
 C          1.8791448409        0.4799402186        0.3991879610
 C          0.4950928031       -0.0734572711        0.7381796356
 C         -0.5029867173        0.0478852255       -0.4180192685
 C         -1.8580854110       -0.4309403013       -0.0074078359
 C         -2.9500346422        0.3096331012       -0.0120247042
 H          2.0948010064       -0.2950443819       -1.6141199617
 H          2.6835583433       -1.3793330027       -0.3515660708
 H          3.6182993908        0.0469170414       -0.8023560320
 H          2.4794472253        0.4925344794        1.3122806086
 H          1.7803947844        1.5123539863        0.0558183145
 H          0.5868601510       -1.1230365644        1.0277091612
 H          0.0971297099        0.4732267228        1.5968556405
 H         -0.5601176794        1.0882032076       -0.7446311255
 H         -0.1560271989       -0.5573926974       -1.2593091775
 H         -1.9015373123       -1.4617560632        0.3216840911
 H         -3.9062206821       -0.0767918774        0.2980124381
 H         -2.9347112657        1.3386280624       -0.3332491205
  18
        -18.93418132
 C          2.4829444364        0.7756282519        0.1838786426
 C          1.9247323839       -0.6058530296       -0.1375683057
 C          0.4659610428       -0.5753073635       -0.5934259398
 C         -0.5046533411       -0.1508311939        0.5134590962
 C         -1.9226194574       -0.2607027580        0.0529785575
 C         -2.7666933607        0.7504327586       -0.0249123063
 H          3.5428916971        0.7086872976        0.4191071845
 H          1.9749424503        1.2142242919        1.0387152022
 H          2.3625029527        1.4414364359       -0.6681002807
 H          2.5263344495       -1.0520419546       -0.9333986770
 H          2.0145185096       -1.2473081976        0.7424579650
 H          0.3639147637        0.1091114567       -1.4388598534
 H          0.1859057743       -1.5732303057       -0.9406157872
 H         -0.3575787547       -0.8042739129        1.3789576162
 H         -0.2995944564        0.8752890872        0.8197012887
 H         -2.2365869476       -1.2546701965       -0.2410931176
 H         -3.7796765901        0.6264637161       -0.3689061773
 H         -2.4802674058        1.7503721879        0.2586529101
  18
        -18.93410049
 C          2.8388185593        0.4417633441       -0.1251266861
 C          1.4610114668        0.1827692256        0.4725122379
 C          0.5562641237       -0.5599759859       -0.5077748210
 C         -0.8068858521       -0.9370588791        0.0886028724
 C         -1.6466958775        0.2628067296        0.3925515056
 C         -2.7295062539        0.6006236130       -0.2817590020
 H          3.4704186264        0.9732318113        0.5830653572
 H          2.7551074331        1.0426241341       -1.0282323061
 H          3.3266959003       -0.4959286190       -0.3832593255
 H          1.5676952105       -0.4090838580        1.3850269788
 H          1.0051627229        1.1364862415        0.7434002211
 H          0.3973047849        0.0582899975       -1.3943330808
 H          1.0599600421       -1.4759499229       -0.8272216073
 H         -1.3358194132       -1.5766281093       -0.6212548699
 H         -0.6441211779       -1.5072661636        1.0074733819
 H         -1.3102864383        0.8761157641        1.2179738790
 H         -3.3047752061        1.4786311728       -0.0408440108
 H         -3.0906037843        0.0075867141       -1.1066248076
  18
        -18.93379070
 C          2.8592264462        0.6023100273        0.0015349921
 C          1.7622092604       -0.4501467987       -0.1030425171
 C          0.3705608515        0.1678664252        0.0119908116
 C         -0.7242921115       -0.8887721257       -0.0950756795
 C         -2.1260292188       -0.3713131948        0.0074790751
 C         -2.4982365451        0.8830057552        0.1791361640
 H          2.7548252096        1.3416676988       -0.7896965023
 H          3.8413136871        0.1431488253       -0.0854175837
 H          2.8043621692        1.1165061607        0.9587227249
 H          1.8493387716       -0.9698280575       -1.0603919161
 H          1.8954697556       -1.1915800954        0.6885977348
 H          0.2854309857        0.6825084770        0.9713682433
 H          0.2401885876        0.9069190290       -0.7813170635
 H         -0.6254521444       -1.4158451716       -1.0503238389
 H         -0.5805656047       -1.6388086920        0.6903419774
 H         -2.8829504367       -1.1430587680       -0.0731881610
 H         -3.5383362412        1.1558796233        0.2407684274
 H         -1.7945345705        1.6923465969        0.2664299893
  18
        -18.93369947
 C          1.6433527635        1.1411884346       -0.2083507893
 C          1.6884775673       -0.2555968345        0.3985356568
 C          0.6955472381       -1.2309071899       -0.2358511385
 C         -0.7597287612       -1.0086883705        0.1908001962
 C         -1.3921873573        0.2032286254       -0.4139154716
 C         -2.0956442922        1.0971646712        0.2561531357
 H          1.8447055256        1.0977805649       -1.2769075278
 H          2.3948773014        1.7771480264        0.2548096254
 H          0.6678607951        1.5955621491       -0.0598640991
 H          2.6967946926       -0.6589926640        0.2724288262
 H          1.4927641963       -0.1919807576        1.4713784814
 H          0.7692467144       -1.1659381263       -1.3239172258
 H          0.9796589238       -2.2459601403        0.0536537260
 H         -1.3401444782       -1.8804488536       -0.1317747398
 H         -0.8205879732       -0.9553891878        1.2798095106
 H         -1.2663166589        0.3019685970       -1.4849896160
 H         -2.5553832926        1.9433089584       -0.2261440782
 H         -2.2395883434        1.0218120376        1.3220080790
  18
        -18.93315335
 C          2.3457517485        0.3435632677        0.6497268909
 C          1.5207326429        0.3331937034       -0.6320777309
 C          0.5091992287       -0.8120869906       -0.6917792396
 C         -0.5679173504       -0.7765518628        0.4021864968
 C         -1.4139226197        0.4545750004        0.3309052220
 C         -2.6691193172        0.4703014141       -0.0759620590
 H          1.7245008396        0.5578712969        1.5156047828
 H          3.1188869946        1.1067661914        0.5936844489
 H          2.8270725876       -0.6207122083        0.8005585540
 H          1.0022106170        1.2871486141       -0.7415112055
 H          2.1968283767        0.2311362302       -1.4849478245
 H          0.0125546425       -0.7882500618       -1.6649174264
 H          1.0460653548       -1.7612016567       -0.6155293261
 H         -1.2024088066       -1.6581050517        0.2861259183
 H         -0.0889942011       -0.8327549510        1.3820295648
 H         -0.9327329517        1.3758948592        0.6317416281
 H         -3.2459890699        1.3786369011       -0.1221613688
 H         -3.1775736689       -0.4312841431       -0.3780861770
  18
        -18.93285485
 C          2.5622369056        0.7156704710        0.1506515355
 C          1.2600991933        0.2550555244       -0.4928324339
 C          0.5103719975       -0.7370908469        0.3938711342
 C         -0.8215725317       -1.1715456983       -0.2147758317
 C         -1.8970404223       -0.1273697241       -0.2578244368
 C         -1.9284839700        1.0183652115        0.3962741013
 H          2.3652518528        1.2140290300        1.0976805174
 H          3.0865562837        1.4119575200       -0.4998575419
 H          3.2154313702       -0.1333412781        0.3422013365
 H          0.6242831244        1.1195963912       -0.6903194021
 H          1.4788079071       -0.2186086047       -1.4530185446
 H          1.1342005186       -1.6232320149        0.5365259250
 H          0.3400982214       -0.2988184727        1.3785907258
 H         -0.6479453638       -1.5282668317       -1.2347665295
 H         -1.2142518942       -2.0232634059        0.3523898635
 H         -2.7359875001       -0.3953284591       -0.8899090345
 H         -2.7646774198        1.6914506946        0.3069700449
 H         -1.1352404516        1.3429055119        1.0470955066
  18
        -18.93284490
 C          2.5829489446        0.1250920170        0.5648599355
 C          1.7793558820       -0.1020150981       -0.7106201431
 C          0.3072098160        0.2901322184       -0.5760293115
 C         -0.4650039129       -0.6245476097        0.3699429169
 C         -1.9329503078       -0.3433810950        0.4674496437
 C         -2.5978078720        0.6297603784       -0.1262020929
 H          3.6354022874       -0.0873247039        0.3900425245
 H          2.2382706782       -0.5218108730        1.3674755231
 H          2.4922032386        1.1587258698        0.8922771828
 H          2.2234059977        0.4906489347       -1.5142251061
 H          1.8486123218       -1.1531497869       -1.0012133188
 H          0.2423290817        1.3203083673       -0.2197033865
 H         -0.1564007591        0.2444158693       -1.5640662393
 H         -0.3383899425       -1.6641200200        0.0487482220
 H         -0.0460796791       -0.5530585108        1.3781070718
 H         -2.4671600796       -1.0352809240        1.1087021443
 H         -3.6593148450        0.7490823019        0.0121339839
 H         -2.1250341461        1.3489985580       -0.7719712238
  18
        -18.93248464
 C          2.5874264861        0.6915731342       -0.1683965556
 C          1.2887271838        0.2028681874        0.4606141684
 C          0.4931325276       -0.6813842076       -0.4961401036
 C         -0.8199816319       -1.1637593521        0.1247697703
 C         -1.7929646697       -0.0647797128        0.4467506870
 C         -2.0687097783        0.9696968725       -0.3256313304
 H          3.2166711747       -0.1503320418       -0.4504287701
 H          3.1411279330        1.3148586265        0.5299534950
 H          2.3813804292        1.2777590820       -1.0614952604
 H          1.5153168495       -0.3617341914        1.3683034083
 H          0.6764497655        1.0603351579        0.7474927180
 H          0.2881729999       -0.1290721738       -1.4141684192
 H          1.0954115621       -1.5527602936       -0.7650927002
 H         -1.3027433649       -1.8609819660       -0.5681614607
 H         -0.5952082950       -1.7193674332        1.0379665460
 H         -2.3131694602       -0.1715991708        1.3903748012
 H         -2.7906435796        1.7146167366       -0.0366963599
 H         -1.5902988456        1.1238918916       -1.2781583925
  18
        -18.93227239
 C          2.8809428659        0.5741343860       -0.0948387306
 C          1.7689840253       -0.4478286547        0.1077902342
 C          0.3891490267        0.1636032296       -0.1213803855
 C         -0.7280968135       -0.8613663479        0.0884266265
 C         -2.0981448884       -0.3211585510       -0.2083446295
 C         -2.5712419399        0.8344178422        0.2200315931
 H          3.8549284092        0.1203216946        0.0733063588
 H          2.7656666792        1.4054120820        0.5973692311
 H          2.8560999141        0.9685527948       -1.1083998071
 H          1.9147178779       -1.2826164216       -0.5820664941
 H          1.8227702989       -0.8459597226        1.1240138960
 H          0.2532688715        1.0022517609        0.5627124385
 H          0.3287066075        0.5537241459       -1.1400515864
 H         -0.5377582139       -1.7272743016       -0.5492922566
 H         -0.6988447466       -1.2095752144        1.1260399738
 H         -2.7296717704       -0.9576582060       -0.8150617131
 H         -3.5673248560        1.1632856340       -0.0232425825
 H         -1.9914655372        1.5030741294        0.8337646823
  18
        -18.93189470
 C          2.3207828926        0.3656007894       -0.6236743688
 C          1.2821405660        0.5364716880        0.4791405738
 C          0.4481078786       -0.7248968263        0.7130895054
 C         -0.5565285777       -1.0079277690       -0.4028916123
 C         -1.6965870916       -0.0411208744       -0.5206930827
 C         -2.0844655208        0.8536098070        0.3685911139
 H          2.9246371994        1.2656715297       -0.7155756745
 H          1.8465182572        0.1803272693       -1.5841087988
 H          2.9824650557       -0.4690344114       -0.3998097772
 H          1.7980873316        0.7909646643        1.4083037063
 H          0.6214280560        1.3670246276        0.2263083153
 H          1.1225105307       -1.5806701532        0.7995136190
 H         -0.0867522796       -0.6375943119        1.6604674260
 H         -0.0355546994       -1.0443142765       -1.3629917734
 H         -0.9862166117       -2.0042039093       -0.2466301964
 H         -2.2536202682       -0.1383823407       -1.4457427212
 H         -2.9347516490        1.4899265053        0.1882139891
 H         -1.5839773499        0.9979245706        1.3104339335
  18
        -18.93177569
 C          1.8206054409        1.1223130997        0.0840415399
 C          1.6902114676       -0.3895886286        0.2317312462
 C          0.5706005913       -0.9804901314       -0.6313471873
 C         -0.7933457555       -1.0589761306        0.0724523676
 C         -1.3231163480        0.2772596942        0.4882425153
 C         -2.1955506972        0.9774550067       -0.2125609214
 H          0.8862864387        1.6206708641        0.3264790255
 H          2.0859071514        1.3794148454       -0.9394653993
 H          2.5981505421        1.5026583171        0.7433446284
 H          2.6405333626       -0.8454353523       -0.0569775830
 H          1.5142674063       -0.6435670251        1.2792178736
 H          0.4675769658       -0.3878893457       -1.5425579021
 H          0.8434511101       -1.9964432597       -0.9269900886
 H         -1.5011207740       -1.5288384562       -0.6146389420
 H         -0.6964169780       -1.6994536067        0.9527143219
 H         -0.9462575339        0.6645430493        1.4258214203
 H         -2.5499699254        1.9419011828        0.1103753139
 H         -2.5944365792        0.6124381713       -1.1453302861
  18
        -18.93147284
 C          2.0183159208        1.0060834106       -0.0047587262
 C          1.8934794293       -0.5090945103       -0.1063063441
 C          0.5300251008       -1.0476869942        0.3293294197
 C         -0.6424406014       -0.5946626246       -0.5607471874
 C         -1.3830817602        0.5684542488        0.0190807124
 C         -2.6669102366        0.5529836414        0.3242422723
 H          3.0358146599        1.3155064806       -0.2351040187
 H          1.7791063248        1.3413918208        1.0023684548
 H          1.3502881275        1.5003604066       -0.7052639770
 H          2.0882925264       -0.8188639200       -1.1362965855
 H          2.6593620602       -0.9684441124        0.5241282043
 H          0.5813894695       -2.1385521106        0.3132090572
 H          0.3342262826       -0.7471592355        1.3611812072
 H         -0.2581321612       -0.3249622287       -1.5484482397
 H         -1.3422359663       -1.4220163916       -0.6938040831
 H         -0.7970847141        1.4586712848        0.2016918508
 H         -3.1658084641        1.4086453512        0.7472757225
 H         -3.2787090666       -0.3194924249        0.1590504993
  18
        -18.93073053
 C          2.5659794253        0.3786340355        0.4832135966
 C          1.6006151727        0.2583715660       -0.6902160810
 C          0.5240218860       -0.8015284967       -0.4584355662
 C         -0.5099863370       -0.3853014426        0.6086736049
 C         -1.8870976401       -0.2966680363        0.0322192424
 C         -2.6162944544        0.8024011893       -0.0034225872
 H          3.0736716290       -0.5683456250        0.6543813771
 H          2.0411646792        0.6524538937        1.3951312657
 H          3.3176926770        1.1383447935        0.2814349024
 H          1.1216899809        1.2225472717       -0.8748793068
 H          2.1671866920       -0.0052004874       -1.5867252273
 H          0.0055802581       -0.9812730111       -1.4030633041
 H          1.0081140813       -1.7366592174       -0.1703063427
 H         -0.5171897632       -1.1161444145        1.4211378052
 H         -0.2397370585        0.5816303928        1.0346049850
 H         -2.2717239445       -1.2181070320       -0.3873652018
 H         -3.6018906504        0.8229064279       -0.4370655754
 H         -2.2582506611        1.7332753451        0.4060027778
  18
        -18.92849559
 C          2.5714381294       -0.0071743049       -0.5742182822
 C          1.5137756340        0.6592112677        0.2978583355
 C          0.4209705708       -0.3138816494        0.7412769418
 C         -0.5055125803       -0.7602455804       -0.4068002634
 C         -1.9488860089       -0.3998138054       -0.1946153238
 C         -2.3788724547        0.7953909928        0.1655942550
 H          3.0584307350       -0.8131515343       -0.0290753230
 H          3.3305394565        0.7134731160       -0.8705334630
 H          2.1287279991       -0.4251616039       -1.4752581568
 H          1.9988644977        1.0726049903        1.1856192960
 H          1.0601908588        1.4900412115       -0.2473541739
 H          0.8959303390       -1.1886322234        1.1900384328
 H         -0.1790618624        0.1611489716        1.5192068511
 H         -0.1762832348       -0.2875709998       -1.3362801571
 H         -0.4259471293       -1.8381702432       -0.5523208978
 H         -2.6645406105       -1.1916637631       -0.3743628278
 H         -3.4260135086        1.0076728526        0.2982856177
 H         -1.7029920509        1.6153617989        0.3453059509
