  21
        -23.23238456
 C         -3.2072102050       -1.2843179071       -0.0673471955
 C         -2.1357815663       -0.3556468002        0.4917550088
 C         -1.2667622212        0.2116708393       -0.6196077381
 S         -0.0000050178        1.3696902398        0.0000892483
 C          1.2668325150        0.2116722523        0.6196367485
 C          2.1364850036       -0.3546731638       -0.4917169497
 C          3.2065048079       -1.2851335040        0.0671003037
 H         -3.8203014289       -1.6825392485        0.7373472253
 H         -3.8526627137       -0.7483225839       -0.7595579972
 H         -2.7525763917       -2.1182448153       -0.5985420769
 H         -1.5144831502       -0.9060411172        1.2023016030
 H         -2.6039261569        0.4702051915        1.0308345329
 H         -0.7587807148       -0.5773979006       -1.1737063431
 H         -1.8672043151        0.7984021819       -1.3143322267
 H          0.7588183625       -0.5778909753        1.1729942505
 H          1.8668029256        0.7981145589        1.3150083042
 H          1.5154220570       -0.9034425580       -1.2037249307
 H          2.6058852124        0.4715861248       -1.0290782094
 H          3.8506329480       -0.7511726827        0.7621232873
 H          2.7505457582       -2.1204043637        0.5950504234
 H          3.8211728903       -1.6812861556       -0.7374137981
