  20
        -34.25844683
 C          0.0468494578       -2.5850777279        0.0451425770
 C         -0.0629812783       -1.0973698023       -0.2240081168
 O          0.8521895271       -0.3722953783        0.5877160988
 C          1.8027541221        0.3705372512       -0.0046234771
 O          2.0088950501        0.3489510901       -1.1952006593
 C          2.5507066508        1.1847120541        0.9986738228
 O         -1.3733253942       -0.6872231861        0.1283448844
 C         -1.7290294790        0.5890747804       -0.0969856702
 O         -0.9827797089        1.3986797714       -0.5998025355
 C         -3.1244309302        0.8492576280        0.3639811285
 H          1.0347432863       -2.9302030470       -0.2420431476
 H         -0.7083415291       -3.1060939273       -0.5332122516
 H         -0.1140496509       -2.7653733841        1.1036182982
 H          0.1351105001       -0.8380964372       -1.2759374364
 H          2.5382878658        0.6892242544        1.9634854724
 H          3.5632732758        1.3568587850        0.6486644452
 H          2.0445785793        2.1444448756        1.0882229136
 H         -3.5156171389        1.7298787547       -0.1346948330
 H         -3.7418527013       -0.0228653154        0.1757129038
 H         -3.1015096759        1.0282492885        1.4371201061
  20
        -34.25836134
 C         -0.1948564433       -2.5779153637        0.0175457046
 C          0.0434857991       -1.0984416331       -0.2108086001
 O          1.2778993933       -0.7575417656        0.3983728324
 C          1.7434603300        0.4938081069        0.2529274026
 O          1.1490758232        1.3463388170       -0.3683361360
 C          3.0583316344        0.6673543221        0.9386114748
 O         -0.9754958582       -0.3250248935        0.4094518816
 C         -1.7473688714        0.4682768593       -0.3527851308
 O         -1.7113202230        0.4583801887       -1.5607155001
 C         -2.6373351832        1.3211943420        0.4894084147
 H         -1.1206744010       -2.8716657274       -0.4662952964
 H         -0.2610770683       -2.7644116570        1.0850845310
 H          0.6339995589       -3.1385855617       -0.4007411184
 H          0.0724930300       -0.8304841229       -1.2786648840
 H          3.2797699354       -0.2064795098        1.5407424758
 H          3.8270156286        0.8036554573        0.1810649650
 H          3.0298990459        1.5666461880        1.5476027723
 H         -2.1149134235        2.2577752417        0.6775149049
 H         -3.5542307174        1.5371451444       -0.0493496837
 H         -2.8340834992        0.8313029496        1.4369603079
  20
        -34.25809796
 C          0.0630821749       -2.5611975312        0.0453952694
 C         -0.0649204541       -1.0735207483       -0.2172001795
 O          0.8471814355       -0.3417298599        0.5928341342
 C          1.8181592503        0.3735386379        0.0003955464
 O          2.0136503259        0.3594090673       -1.1920587721
 C          2.6247893795        1.1215208902        1.0105730919
 O         -1.3766466505       -0.6792848086        0.1443790911
 C         -1.7580900046        0.5850492756       -0.1072490681
 O         -1.0319273092        1.3946415190       -0.6380577795
 C         -3.1532870218        0.8306497286        0.3624295374
 H         -0.6903671310       -3.0882956041       -0.5297089649
 H         -0.0884896006       -2.7471463558        1.1042778258
 H          1.0524850807       -2.8946913852       -0.2503356595
 H          0.1245621545       -0.8074724270       -1.2690250330
 H          3.3040540570        0.4217048335        1.4929698401
 H          3.1983826935        1.8966887343        0.5137002529
 H          1.9698424812        1.5413500811        1.7672136735
 H         -3.1248714562        1.0245291484        1.4327907923
 H         -3.5620325184        1.6978974782       -0.1454806541
 H         -3.7586033928       -0.0534486595        0.1911972135
  20
        -34.25801541
 C         -0.2087299944       -2.5570211678        0.0194571768
 C          0.0432422831       -1.0784001902       -0.2009989055
 O          1.2750126183       -0.7498412148        0.4183647632
 C          1.7710964932        0.4866700413        0.2452892527
 O          1.2040612299        1.3337800913       -0.4075557525
 C          3.0810897974        0.6489707778        0.9428102572
 O         -0.9739536239       -0.2995325333        0.4164028113
 C         -1.7591985544        0.4764883297       -0.3496390654
 O         -1.7051698377        0.4814133063       -1.5569280458
 C         -2.7138639263        1.2636735974        0.4867011094
 H         -0.2867268218       -2.7468706209        1.0856244917
 H          0.6200593039       -3.1223648997       -0.3927488745
 H         -1.1316317739       -2.8424621266       -0.4748287731
 H          0.0815347841       -0.8053288334       -1.2672686366
 H          3.8627443603        0.7351191778        0.1911406725
 H          3.0707831400        1.5708123140        1.5176348465
 H          3.2702259443       -0.2080254290        1.5791764494
 H         -3.0809392829        2.1105467008       -0.0835108084
 H         -3.5503911579        0.6188949074        0.7486355965
 H         -2.2259426451        1.5853274299        1.4009014898
  20
        -34.25688936
 C         -0.3900771357       -2.4074385040        0.7711121996
 C          0.0771072541       -1.3475022538       -0.2118884182
 O          1.0856761050       -0.5893626134        0.4319653418
 C          1.6010640309        0.4900753944       -0.1743480707
 O          1.2748036153        0.8419283809       -1.2855513796
 C          2.5903732540        1.1763736480        0.7083144798
 O         -1.0065171857       -0.5554072178       -0.6867934794
 C         -1.5091550051        0.4595576868        0.0291649267
 O         -1.1127353556        0.7763641524        1.1274778942
 C         -2.5977909244        1.1470083280       -0.7316565250
 H         -0.7831213634       -1.9202634925        1.6598124026
 H          0.4535607615       -3.0301790724        1.0475337824
 H         -1.1632698422       -3.0104468917        0.3067082357
 H          0.4849543804       -1.7844998567       -1.1345338974
 H          3.2363751426        0.4402822996        1.1763266302
 H          3.1610541884        1.8954172696        0.1304730325
 H          2.0378578408        1.6901292910        1.4930902153
 H         -2.1356396887        1.7434280193       -1.5159732949
 H         -3.2406625769        0.4092381215       -1.2009912384
 H         -3.1576020939        1.7932366779       -0.0639465779
  20
        -34.25659742
 C         -0.0769304046       -2.5465694270       -0.0241693380
 C         -0.0154572034       -1.0377226116       -0.1611708463
 O          1.0710736750       -0.5505106313        0.6144584453
 C          1.8653704686        0.4171764353        0.1245389653
 O          1.7399185186        0.8803799106       -0.9849786904
 C          2.9036156340        0.8117245676        1.1240300863
 O         -1.2037533483       -0.4780764739        0.3809477533
 C         -1.8237371827        0.5297232243       -0.2576290430
 O         -1.4551030968        0.9671023459       -1.3224740307
 C         -3.0074717220        1.0047551370        0.5204017191
 H         -0.9227367758       -2.9247661198       -0.5886066319
 H         -0.1940233975       -2.7978582144        1.0255128846
 H          0.8420399383       -2.9797117090       -0.4047933027
 H          0.1019897470       -0.6977590768       -1.2012517504
 H          3.8698902515        0.8715619161        0.6314097514
 H          2.6602126761        1.8023489254        1.5022136448
 H          2.9209811736        0.0992378244        1.9411059767
 H         -3.2895116954        0.2604410939        1.2567684706
 H         -2.7369106421        1.9301412404        1.0250202873
 H         -3.8244633307        1.2199250367       -0.1617293712
  20
        -34.25658873
 C         -0.4001128126       -2.3920670866        0.7580559298
 C          0.0789819003       -1.3261486929       -0.2122698613
 O          1.0755701239       -0.5681621669        0.4480917599
 C          1.6335894692        0.4794674485       -0.1774803626
 O          1.3535753528        0.7936516590       -1.3120442070
 C          2.6045849290        1.1790592032        0.7147779278
 O         -1.0011672213       -0.5323371407       -0.6950551980
 C         -1.5298161021        0.4630143454        0.0285098957
 O         -1.1326050072        0.7902131400        1.1238869611
 C         -2.6642290524        1.1063463969       -0.7050059910
 H          0.4395595140       -3.0180041780        1.0393191752
 H         -1.1691299980       -2.9907199608        0.2812029873
 H         -0.8016663559       -1.9102311437        1.6458600865
 H          0.4985232893       -1.7556625575       -1.1331231726
 H          3.1950653538        1.8812531493        0.1361705072
 H          2.0369222540        1.7119340714        1.4754924359
 H          3.2338329457        0.4487871386        1.2139266448
 H         -2.7478523539        0.6865007078       -1.7009451358
 H         -3.5801942736        0.9379683148       -0.1435293960
 H         -2.4928247412        2.1784060236       -0.7525158642
  20
        -34.25645205
 C         -0.4027548990       -2.3840754814        0.7650708946
 C          0.0785448677       -1.3220719316       -0.2084959237
 O          1.0714916562       -0.5576335088        0.4539030993
 C          1.6291901724        0.4917184478       -0.1663097114
 O          1.3237530650        0.8336468702       -1.2868343220
 C          2.6573236272        1.1468148665        0.6969412034
 O         -0.9943856144       -0.5304564543       -0.7057739532
 C         -1.5443931298        0.4469447159        0.0291826087
 O         -1.1988207371        0.7226796403        1.1549021609
 C         -2.6140580142        1.1463001669       -0.7474969039
 H         -0.8172524716       -1.8991835717        1.6452156282
 H          0.4387296395       -3.0017055874        1.0591327249
 H         -1.1623005798       -2.9920382108        0.2847661002
 H          0.5067731628       -1.7565027839       -1.1228882970
 H          2.5062801488        2.2224736356        0.6796848155
 H          2.5896884169        0.7613384267        1.7080085899
 H          3.6407945339        0.9381754193        0.2814864592
 H         -2.1363032706        1.7449602092       -1.5202950276
 H         -3.2513628188        0.4141755643       -1.2334490335
 H         -3.1847427258        1.7885121117       -0.0852097995
  20
        -34.25051994
 C         -0.1630205426       -1.9407471653        0.9964410409
 C          0.0394979792       -1.3226532690       -0.3760868581
 O          1.3513619875       -0.7604267032       -0.4889200511
 C          1.6582240107        0.4388781039        0.0240226741
 O          0.8606831164        1.1721083780        0.5643813321
 C          3.1114355064        0.7356479531       -0.1693916406
 O         -0.9141156182       -0.3760772895       -0.8294890974
 C         -1.7041089027        0.3829606336       -0.0421046317
 O         -1.8977464423        0.1961859732        1.1320792312
 C         -2.3421552191        1.4630807872       -0.8592381234
 H          0.5848229679       -2.7177746604        1.1263678234
 H         -1.1570893877       -2.3715738020        1.0633672847
 H         -0.0530164952       -1.1926771416        1.7774130106
 H          0.0379159476       -2.0973488286       -1.1538428464
 H          3.2707410710        1.8088267254       -0.1478365272
 H          3.6622128614        0.2804674264        0.6514311799
 H          3.4571041659        0.2999678697       -1.1008524919
 H         -2.4362326961        1.1460966931       -1.8922685451
 H         -3.3038073698        1.7247880274       -0.4302419843
 H         -1.6897580899        2.3335941746       -0.8138815887
  20
        -34.24992604
 C          0.0731589890       -2.1049268620        0.5089419131
 C         -0.0974567057       -1.1717890412       -0.6769717989
 O          0.8875468303       -0.1716141274       -0.8882302228
 C          1.7334387682        0.3177667475        0.0394898539
 O          1.8980322981       -0.1387210251        1.1420252878
 C          2.5009977862        1.4685851703       -0.5369212505
 O         -1.3879013670       -0.5547882029       -0.6624830506
 C         -1.6677520871        0.4719886108        0.1542144660
 O         -0.8693580919        0.9695392410        0.9151009731
 C         -3.0829264175        0.9185149738       -0.0325322484
 H         -0.7003861274       -2.8652456373        0.4490084415
 H         -0.0199827594       -1.5610575529        1.4453923202
 H          1.0519810877       -2.5727599361        0.4725024883
 H         -0.1094298658       -1.7384648643       -1.6172399161
 H          3.3730796160        1.0717362167       -1.0524942008
 H          1.8881018013        2.0101565559       -1.2492309795
 H          2.8322887093        2.1154642081        0.2688094090
 H         -3.1755478154        1.3838519016       -1.0109155362
 H         -3.7419124480        0.0560931656       -0.0058460965
 H         -3.3432023985        1.6327507524        0.7413538812
  20
        -34.24923340
 C         -0.2831883897       -2.5584653278        0.3742708164
 C         -0.0461638400       -1.1203577151       -0.0463703321
 O          1.2398485102       -0.7370483303        0.4232641870
 C          1.7956016483        0.3797093321       -0.0741052644
 O          1.2649384689        1.0409661346       -0.9385859082
 C          3.1095693378        0.6680152173        0.5677757421
 O         -0.9947602182       -0.2768207843        0.5902827260
 C         -1.7882697610        0.6139001697       -0.0326886295
 O         -2.4544207103        1.3316368279        0.6780342145
 C         -1.8335971111        0.6594347854       -1.5274013211
 H          0.4927874848       -3.1874349987       -0.0487049912
 H         -1.2568329725       -2.8827278222        0.0224393356
 H         -0.2516461057       -2.6182679164        1.4576457752
 H         -0.0739424006       -0.9908603635       -1.1345725510
 H          3.6025197669       -0.2614439643        0.8328381259
 H          3.7194786979        1.2698028072       -0.0982365163
 H          2.9242799620        1.2321064867        1.4802292188
 H         -0.8638895575        0.9811285837       -1.9071311531
 H         -2.0814066127       -0.3149482700       -1.9406301827
 H         -2.5881510481        1.3843842542       -1.8160946804
  20
        -34.24912594
 C         -0.2749220834       -2.5553879546        0.3677760628
 C         -0.0450885242       -1.1132365011       -0.0432807974
 O          1.2332873222       -0.7223642986        0.4410633616
 C          1.7976117061        0.3874853591       -0.0619335660
 O          1.2679720676        1.0536006972       -0.9232426548
 C          3.1342091971        0.6437534017        0.5464084181
 O         -1.0068721668       -0.2815528184        0.5888226206
 C         -1.7983534683        0.6098516406       -0.0357571524
 O         -2.4790684825        1.3156998041        0.6730384846
 C         -1.8246389614        0.6698329128       -1.5304595961
 H         -0.2581299494       -2.6196466725        1.4512130510
 H          0.5127017633       -3.1754511775       -0.0466730187
 H         -1.2405300173       -2.8869275003        0.0009386547
 H         -0.0638614600       -0.9781423911       -1.1309907953
 H          3.1220487264        0.3626304998        1.5943460857
 H          3.8667807414        0.0237735328        0.0330066389
 H          3.4017312312        1.6875322897        0.4181899005
 H         -2.5786172547        1.3943350457       -1.8217694924
 H         -0.8515894901        0.9989130966       -1.8949765808
 H         -2.0633094090       -0.3015762117       -1.9559502818
