  22
        -23.41689274
 C         -1.1188834656        2.1420387509       -0.1773730870
 C         -0.4080528532        1.0548866030        0.6273600251
 N          0.0094485502       -0.0336002747       -0.2405709694
 C         -0.4098727349       -1.3534610560        0.1848502905
 C         -1.8961361517       -1.5688270404       -0.0914888228
 C          1.3811986487        0.0546957854       -0.6914274676
 C          2.4539224208       -0.3061025245        0.3457238782
 H         -1.9866780602        1.7242283709       -0.6797554659
 H         -1.4415390980        2.9481887114        0.4774086190
 H         -0.4523497457        2.5510333171       -0.9320926658
 H         -1.0911722800        0.6710266886        1.3890549787
 H          0.4476755427        1.4997598273        1.1536373745
 H          0.1595805131       -2.0860772019       -0.3922310217
 H         -0.2071517165       -1.5357094408        1.2547724822
 H         -2.5060682958       -0.8851773420        0.4929880556
 H         -2.1013544825       -1.3970277687       -1.1445177609
 H         -2.1793094563       -2.5874505766        0.1629733865
 H          1.4879851074       -0.6075869907       -1.5567834036
 H          1.5449047866        1.0786138215       -1.0370166559
 H          2.3677641603        0.3233307979        1.2287709903
 H          2.3578639205       -1.3446267729        0.6532656029
 H          3.4426139507       -0.1624200633       -0.0825853321
