  22
        -23.41689274
 C         -1.1188834656        2.1420387509       -0.1773730870
 C         -0.4080528532        1.0548866030        0.6273600251
 N          0.0094485502       -0.0336002747       -0.2405709694
 C         -0.4098727349       -1.3534610560        0.1848502905
 C         -1.8961361517       -1.5688270404       -0.0914888228
 C          1.3811986487        0.0546957854       -0.6914274676
 C          2.4539224208       -0.3061025245        0.3457238782
 H         -1.9866780602        1.7242283709       -0.6797554659
 H         -1.4415390980        2.9481887114        0.4774086190
 H         -0.4523497457        2.5510333171       -0.9320926658
 H         -1.0911722800        0.6710266886        1.3890549787
 H          0.4476755427        1.4997598273        1.1536373745
 H          0.1595805131       -2.0860772019       -0.3922310217
 H         -0.2071517165       -1.5357094408        1.2547724822
 H         -2.5060682958       -0.8851773420        0.4929880556
 H         -2.1013544825       -1.3970277687       -1.1445177609
 H         -2.1793094563       -2.5874505766        0.1629733865
 H          1.4879851074       -0.6075869907       -1.5567834036
 H          1.5449047866        1.0786138215       -1.0370166559
 H          2.3677641603        0.3233307979        1.2287709903
 H          2.3578639205       -1.3446267729        0.6532656029
 H          3.4426139507       -0.1624200633       -0.0825853321
  22
        -23.41689117
 C         -0.7066258389        2.3085654134       -0.1686997630
 C         -0.4959361236        1.0177250496        0.6217290904
 N          0.0094275634       -0.0351887098       -0.2437342685
 C         -0.9973673961       -0.9634162420       -0.7093919638
 C         -1.4937844725       -1.9873101318        0.3210468991
 C          1.2491805783       -0.6450508465        0.1909647891
 C          2.4324137693        0.2879096332       -0.0558905811
 H          0.2308876772        2.6305139841       -0.6129250521
 H         -1.4246783723        2.1470366293       -0.9683815026
 H         -1.0794260153        3.0956168845        0.4827546156
 H         -1.4456531285        0.7267070044        1.0896289631
 H          0.2176149184        1.2040298214        1.4289231445
 H         -1.8443647105       -0.3721782175       -1.0670459715
 H         -0.5812954513       -1.4988530072       -1.5690390192
 H         -2.2758310398       -2.6017235238       -0.1176489588
 H         -0.6817576193       -2.6365127969        0.6395748361
 H         -1.9000557653       -1.4890726453        1.1986042349
 H          1.2270307340       -0.9310071709        1.2573658489
 H          1.3962591319       -1.5551361910       -0.3957645990
 H          2.4627548837        0.5714927739       -1.1043075484
 H          2.3493914783        1.1913122576        0.5423996127
 H          3.3625353860       -0.2127540900        0.2025225594
  22
        -23.41688921
 C         -0.7914055845        2.2198739523        0.5780345810
 C         -0.4842869969        1.1188063444       -0.4354852047
 N          0.0458542918       -0.0589269740        0.2305817201
 C         -0.9562040844       -1.0360128183        0.5982193594
 C         -1.5219064441       -1.8854661979       -0.5485321142
 C          1.2451820470       -0.6120921824       -0.3661327779
 C          2.4678437676        0.2336610279       -0.0171082457
 H          0.1091433001        2.4775053710        1.1282501074
 H         -1.1640122525        3.1069102079        0.0710662698
 H         -1.5416054084        1.8851162921        1.2896124131
 H          0.2547616659        1.4905563387       -1.1486262485
 H         -1.3965440503        0.8873444558       -1.0039736047
 H         -0.5100457784       -1.7011139896        1.3448239903
 H         -1.7743229529       -0.4974112941        1.0828127409
 H         -0.7391075887       -2.4859721541       -1.0056394527
 H         -2.2906958870       -2.5523248932       -0.1666598601
 H         -1.9652783386       -1.2558796741       -1.3167862868
 H          1.3899519134       -1.6144679314        0.0440115208
 H          1.1655469037       -0.7051597031       -1.4631887676
 H          3.3682294218       -0.2313893797       -0.4115369122
 H          2.3851664942        1.2335949445       -0.4346192471
 H          2.5575165816        0.3195764808        1.0622510296
  22
        -23.41688948
 C         -0.3658115577        2.4023311929        0.2666155121
 C         -0.9612766459        1.0369468976       -0.0685967072
 N         -0.0294738970       -0.0262692336        0.2456084519
 C         -0.6400013287       -1.2806135646        0.6271712845
 C         -1.5255359711       -1.9460807266       -0.4356730194
 C          1.0910560393       -0.1546283951       -0.6715184435
 C          2.4168297346       -0.0437331486        0.0806038005
 H         -1.1052128685        3.1824374100        0.1012802658
 H         -0.0578475010        2.4219892755        1.3084039861
 H          0.5018769768        2.6129975122       -0.3528321174
 H         -1.2719484615        1.0257399395       -1.1283502899
 H         -1.8546350813        0.8878710468        0.5428658044
 H          0.1669316269       -1.9641881633        0.9038913296
 H         -1.2401779438       -1.0970978026        1.5243309056
 H         -0.9647934695       -2.1263610220       -1.3502781907
 H         -1.8930883076       -2.8994080059       -0.0646810561
 H         -2.3787324416       -1.3156637054       -0.6742680719
 H          1.0615923434       -1.1155565304       -1.2013273817
 H          1.0404523145        0.6328905277       -1.4286574695
 H          2.4904965438       -0.8284245060        0.8289513081
 H          3.2529770301       -0.1372851650       -0.6085769807
 H          2.4798510040        0.9156358965        0.5860743761
  22
        -23.41687769
 C         -0.8469455500        2.2030601594        0.5779017284
 C         -0.4625587775        1.1285905620       -0.4374121120
 N          0.0580103700       -0.0515421117        0.2316568045
 C         -0.9525365949       -1.0217400639        0.5963733200
 C         -1.5244090567       -1.8660126477       -0.5511580121
 C          1.2503898081       -0.6161610663       -0.3697468348
 C          2.4858911362        0.2054368606       -0.0079670275
 H         -1.6410999664        1.8501157877        1.2304736127
 H          0.0131574152        2.4541507157        1.1921733122
 H         -1.1914528929        3.0985089151        0.0659248129
 H          0.3091706954        1.5297583248       -1.0974375980
 H         -1.3358428326        0.8924061403       -1.0637189876
 H         -0.5117046801       -1.6908501206        1.3425934392
 H         -1.7672716045       -0.4784087874        1.0809081885
 H         -0.7442494104       -2.4636836682       -1.0163803855
 H         -2.2896965799       -2.5354775147       -0.1668728515
 H         -1.9743290439       -1.2338452745       -1.3133154148
 H          1.3792204866       -1.6254925408        0.0284809460
 H          1.1710131663       -0.6948845792       -1.4676994835
 H          2.5712401243        0.2806233426        1.0725136667
 H          3.3799352967       -0.2722615882       -0.4016871077
 H          2.4236018876        1.2102896874       -0.4171279017
  22
        -23.41683802
 C         -1.1330282481        2.0214129165        0.4629744311
 C         -0.6760788539        1.0975586114       -0.6738084550
 N          0.1374295824       -0.0410427670       -0.2929207714
 C         -0.5325131140       -1.0171529109        0.5495373781
 C         -1.7208516234       -1.6745398579       -0.1433862083
 C          1.4486840848        0.3206376175        0.2210237999
 C          2.5046635509       -0.7077218573       -0.1788871649
 H         -0.2779235061        2.4037774912        1.0159848576
 H         -1.6816912331        2.8640099540        0.0496117866
 H         -1.7868297800        1.4948508541        1.1538716716
 H         -0.0916278153        1.6804320048       -1.3921850639
 H         -1.5529467570        0.7180233933       -1.2022451608
 H          0.2007282138       -1.7938093179        0.7775832465
 H         -0.8586772668       -0.5829012597        1.5115637033
 H         -1.4327647212       -1.9942803973       -1.1412069274
 H         -2.0389314367       -2.5447053483        0.4261138276
 H         -2.5657467954       -0.9955425858       -0.2222789380
 H          1.7294192443        1.2836593558       -0.2117439121
 H          1.4445691309        0.4344474327        1.3183675579
 H          3.4904246301       -0.3629578201        0.1238757454
 H          2.3200552009       -1.6701673016        0.2902945275
 H          2.4925132632       -0.8434609679       -1.2566147531
  22
        -23.41683936
 C         -0.6452248662        2.5150005008        0.2174545191
 C         -1.0199423926        1.0847979766       -0.1658157238
 N         -0.0180340192        0.1357800473        0.2920450225
 C         -0.5669122487       -1.1425183441        0.7016560920
 C         -1.2023371412       -1.9984703026       -0.4021299105
 C          1.1163098500        0.0529438852       -0.6121393341
 C          2.3256265014       -0.6235243928        0.0243659977
 H          0.2479247055        2.8459004343       -0.3054893024
 H         -1.4590391274        3.1909132145       -0.0340181759
 H         -0.4571771248        2.5692511554        1.2861181628
 H         -1.1764766533        1.0258861993       -1.2562910664
 H         -1.9672973148        0.8387444865        0.3195461207
 H          0.2336782586       -1.7104442741        1.1797866494
 H         -1.3199103131       -0.9348961239        1.4680998582
 H         -1.9972046087       -1.4516081125       -0.9043952044
 H         -0.4618893039       -2.2930759172       -1.1417316126
 H         -1.6256731625       -2.8997915931        0.0340081089
 H          0.8597725476       -0.4587448293       -1.5569199095
 H          1.3942374297        1.0783046798       -0.8653049953
 H          2.1799085407       -1.6958723238        0.1235869701
 H          3.2039701368       -0.4581350305       -0.5951522205
 H          2.5061819897       -0.2014005018        1.0092598923
  22
        -23.41683914
 C         -0.6105967145        2.3238686554        0.1790291721
 C         -0.6017917979        0.9825629656       -0.5464600896
 N         -0.1042697729       -0.0990374913        0.2864075098
 C         -0.4427163378       -1.4081805279       -0.2482073701
 C         -1.8666338228       -1.8104016455        0.1304950830
 C          1.2835069263        0.0283251899        0.6874457744
 C          2.3278204974       -0.0411913729       -0.4348369014
 H          0.3931131877        2.7239373238        0.2957496174
 H         -1.1963683677        3.0423603745       -0.3895532543
 H         -1.0577694414        2.2060319877        1.1623955997
 H         -0.0366415920        1.0755341866       -1.4909298946
 H         -1.6314971876        0.7314022537       -0.8096148400
 H         -0.3292331895       -1.4481351605       -1.3448403544
 H          0.2445828526       -2.1393454185        0.1837821486
 H         -2.0595967070       -2.8322961782       -0.1870652602
 H         -1.9903123083       -1.7449373315        1.2078639209
 H         -2.6011482768       -1.1618852709       -0.3391806493
 H          1.3904986927        0.9761529117        1.2186946741
 H          1.4817916493       -0.7715939448        1.4074940195
 H          2.2122349248        0.7892756097       -1.1269837388
 H          3.3259293409        0.0083078982       -0.0069713485
 H          2.2358282144       -0.9720585334       -0.9899429423
  22
        -23.41689159
 C         -0.3907538285        2.4104191094        0.2694813956
 C         -0.9671780906        1.0407431863       -0.0817109885
 N         -0.0277935905       -0.0136518082        0.2410747951
 C         -0.6296252736       -1.2701993906        0.6297624028
 C         -1.5108552609       -1.9486523507       -0.4284487013
 C          1.0941480285       -0.1407805420       -0.6741215521
 C          2.4182358982       -0.0870495773        0.0869181118
 H         -0.1020791437        2.4286224601        1.3168314587
 H          0.4865750964        2.6312983557       -0.3326159126
 H         -1.1340152622        3.1844577059        0.0935863936
 H         -1.2624835098        1.0310525243       -1.1457037329
 H         -1.8676556895        0.8796633034        0.5160056201
 H          0.1817412960       -1.9467802111        0.9101884117
 H         -1.2309027632       -1.0852361564        1.5257896526
 H         -2.3646036927       -1.3226586507       -0.6764374214
 H         -0.9475312563       -2.1384301845       -1.3394809117
 H         -1.8774680092       -2.8985059124       -0.0477168405
 H          1.0444309858       -1.0811248330       -1.2393714526
 H          1.0665607876        0.6747981692       -1.4013440797
 H          2.4988294585        0.8519099907        0.6272488521
 H          2.4732561084       -0.8999456471        0.8061985396
 H          3.2550946969       -0.1727956101       -0.6024146514
  22
        -23.41679929
 C         -0.8271304073        2.2802067333       -0.1587883121
 C         -0.5139622474        1.0057174277        0.6207403528
 N         -0.0703177117       -0.0638719289       -0.2565054612
 C         -0.4163156063       -1.3915607882        0.2204305557
 C         -1.8714885102       -1.7283605527       -0.0984059124
 C          1.2997575742        0.0622453133       -0.7117050274
 C          2.3931252251       -0.1812614721        0.3377550573
 H         -1.2969843086        3.0089165107        0.4975144807
 H          0.0742506322        2.7253147853       -0.5714038442
 H         -1.5048165418        2.0516109734       -0.9766461978
 H         -1.4289924413        0.6731495323        1.1138865330
 H          0.2204329587        1.2294496685        1.4121166762
 H          0.2224212682       -2.1113665507       -0.2968308999
 H         -0.2411610383       -1.5044174644        1.3036774845
 H         -2.0487581177       -1.6102958025       -1.1638031344
 H         -2.0857459590       -2.7560926678        0.1849792449
 H         -2.5558446723       -1.0752598105        0.4365406515
 H          1.4336137731       -0.6485046577       -1.5334548803
 H          1.4194779666        1.0659464082       -1.1245172261
 H          2.3150727782        0.5308912692        1.1557929321
 H          2.3204371978       -1.1865637314        0.7460246139
 H          3.3712833870       -0.0650890515       -0.1221002824
  22
        -23.41682662
 C         -0.5342389670        2.4585074622        0.2512891328
 C         -0.9985860053        1.0540956433       -0.1287760180
 N         -0.0132187942        0.0584195608        0.2519620095
 C         -0.5771597993       -1.2138150752        0.6545569969
 C         -1.4050053764       -1.9563691316       -0.4035759963
 C          1.1098859044       -0.0480818069       -0.6634312599
 C          2.4080560220       -0.3458261864        0.0831588435
 H         -0.3084925469        2.4938276624        1.3134048002
 H          0.3598565925        2.7412527272       -0.2979060875
 H         -1.3162762357        3.1812345128        0.0309089905
 H         -1.2302586815        1.0224816311       -1.2069551153
 H         -1.9206027065        0.8389096570        0.4164526059
 H          0.2485192619       -1.8531908044        0.9740208892
 H         -1.2073722624       -1.0277828815        1.5302716409
 H         -0.8063766760       -2.1752692782       -1.2845853776
 H         -1.7629648139       -2.8968060949        0.0075251915
 H         -2.2639475182       -1.3635511110       -0.7086883284
 H          0.9463175909       -0.8179350678       -1.4344869150
 H          1.2204361291        0.9074605683       -1.1791075295
 H          3.2486587009       -0.3164871115       -0.6061135093
 H          2.5618912250        0.3960960306        0.8617057862
 H          2.3791364722       -1.3285039067        0.5462058944
  22
        -23.41679721
 C         -0.5745778421        2.4769501312        0.2418751063
 C         -1.0065047025        1.0633667571       -0.1426984822
 N         -0.0129732249        0.0841594714        0.2630376456
 C         -0.5716829674       -1.1898189356        0.6696575751
 C         -1.3459329602       -1.9695060677       -0.4021589433
 C          1.1119857325       -0.0147891352       -0.6508160255
 C          2.3896602985       -0.4379169143        0.0689217559
 H          0.3190366320        2.7789484354       -0.2976998122
 H         -1.3688990366        3.1833693977        0.0129735290
 H         -0.3610484569        2.5165821367        1.3063612508
 H         -1.2130161058        1.0232036278       -1.2255041956
 H         -1.9371983111        0.8358109633        0.3822959925
 H          0.2492980702       -1.8086583390        1.0372497510
 H         -1.2385191369       -0.9939523302        1.5154322681
 H         -0.7033938354       -2.2223323167       -1.2421567744
 H         -1.7274218925       -2.8936033031        0.0246771259
 H         -2.1864572071       -1.3871903792       -0.7723021205
 H          0.9132035263       -0.7067170310       -1.4861145652
 H          1.2751665224        0.9742473324       -1.0824142587
 H          2.5532126549        0.2029342150        0.9309108948
 H          2.3321103445       -1.4680877651        0.4099109258
 H          3.2390883927       -0.3495041812       -0.6042974781
  22
        -23.41628896
 C         -1.1179610158        2.0863253449        0.5797998970
 C         -0.1832927986        1.4108498309       -0.4191465699
 N          0.0038713594        0.0056786035       -0.0988955003
 C         -1.0791818578       -0.8368748248       -0.5776627011
 C         -1.3002615871       -2.0313854578        0.3453920627
 C          1.3185923951       -0.4921054534       -0.4675314687
 C          2.3600760073       -0.1398076269        0.5902905582
 H         -1.1900675278        3.1495151026        0.3632420185
 H         -2.1159891768        1.6581829683        0.5383719099
 H         -0.7313558987        1.9548759481        1.5865308542
 H          0.7885449990        1.9051493410       -0.3685870616
 H         -0.5697977530        1.5457511405       -1.4449825660
 H         -1.9938140719       -0.2414545543       -0.5939039705
 H         -0.8952639590       -1.1883909820       -1.6084416205
 H         -0.4302366495       -2.6823895419        0.3636030599
 H         -1.4856595861       -1.6805717312        1.3567309453
 H         -2.1566521221       -2.6103336094        0.0079032091
 H          1.2628617113       -1.5793380938       -0.5459886576
 H          1.6379836724       -0.1056767159       -1.4516667911
 H          3.3204711609       -0.5777774738        0.3289506270
 H          2.4848645473        0.9362030852        0.6780723637
 H          2.0444883008       -0.5269309839        1.5550587310
  22
        -23.41602179
 C         -0.3666385180        2.2090519693        0.7902804298
 C         -0.7069542164        1.4132725432       -0.4778504250
 N         -0.2803695847        0.0337770256       -0.5366543024
 C         -0.9429188565       -0.8474098369        0.4038293671
 C         -0.9247393227       -2.2980317440       -0.0712114962
 C          1.1356272348       -0.1994181180       -0.7363797166
 C          2.0241530900       -0.2989166136        0.5115012962
 H         -0.8598999264        3.1775992311        0.7530902302
 H         -0.7099336902        1.6826749988        1.6776264823
 H          0.7038928776        2.3773147258        0.8721238132
 H         -0.2766205152        1.9260147592       -1.3435803099
 H         -1.7951861919        1.4133920504       -0.6046034538
 H         -0.5151278258       -0.7938063590        1.4188609370
 H         -1.9836821038       -0.5176293608        0.4697436506
 H         -1.5775209674       -2.8981825677        0.5582751779
 H         -1.2770823738       -2.3540375073       -1.0976191837
 H          0.0759995875       -2.7183416954       -0.0235128198
 H          1.2389252985       -1.1322008509       -1.3025181033
 H          1.5067035108        0.6080089384       -1.3724213706
 H          1.9393153201        0.5863863317        1.1348789076
 H          1.7609631954       -1.1679229408        1.1092549516
 H          3.0613422109       -0.4030281568        0.2011407367
  22
        -23.41593478
 C         -1.5815677736        1.9710590479        0.4523598434
 C         -0.5193744601        1.3530751595       -0.4502968835
 N          0.2358407088        0.2956599979        0.2029646025
 C         -0.5682437426       -0.8212352864        0.6672280307
 C         -1.2719465877       -1.6601260424       -0.4077147643
 C          1.3948707561       -0.0827765474       -0.5899168157
 C          2.3588708188       -0.9943232813        0.1615258344
 H         -2.4372236083        1.3128834598        0.5776935295
 H         -1.1555821923        2.1864072878        1.4286536682
 H         -1.9335049415        2.9006943444        0.0113039470
 H          0.2016617846        2.1337987284       -0.7123019687
 H         -0.9869710577        1.0139221686       -1.3919317322
 H          0.0846300009       -1.4699560847        1.2542503623
 H         -1.3172844488       -0.4197945572        1.3523411514
 H         -1.8353318139       -2.4582997273        0.0692127359
 H         -1.9634752421       -1.0527528051       -0.9867662026
 H         -0.5511046893       -2.1093588692       -1.0866647231
 H          1.1113938349       -0.5547419587       -1.5476864261
 H          1.9219836146        0.8453988421       -0.8323960735
 H          2.5387385343       -0.5994090816        1.1578573120
 H          1.9730420055       -2.0066806992        0.2471140701
 H          3.3046816711       -1.0384320067       -0.3733538001
  22
        -23.41581994
 C         -1.4703515829        2.0208296165        0.0369033644
 C         -0.2095094553        1.2437027341        0.4083888533
 N          0.0889791734        0.1974228120       -0.5488885616
 C         -0.8820295467       -0.8686433259       -0.6598740517
 C         -1.1496103716       -1.7323048455        0.5811491118
 C          1.4850777895       -0.1731841078       -0.6159641965
 C          2.1599644665       -0.6482982384        0.6786362543
 H         -2.3664231161        1.4299534934        0.2061747925
 H         -1.5372636868        2.9200830885        0.6446506232
 H         -1.4320674286        2.3069099532       -1.0107658542
 H         -0.3099003643        0.8672198448        1.4402214720
 H          0.6382310531        1.9344466510        0.3920569186
 H         -1.8268100656       -0.4120069350       -0.9693450569
 H         -0.5538537358       -1.5176326831       -1.4769765019
 H         -0.2773293500       -2.3201068776        0.8527023979
 H         -1.4328172971       -1.1153607445        1.4301369243
 H         -1.9677265465       -2.4170680988        0.3697941416
 H          1.5803019573       -0.9540264865       -1.3750571335
 H          2.0307956379        0.7073507038       -0.9779565869
 H          1.7068197849       -1.5612784895        1.0531970014
 H          3.2117049756       -0.8443504957        0.4830633290
 H          2.0917810470        0.1139490114        1.4507771677
  22
        -23.41570616
 C         -0.8352086647        1.9111915046        0.6244289434
 C         -0.4183790049        1.0178213808       -0.5424426222
 N          0.1120367514       -0.2567832295       -0.0761698161
 C         -0.7117463081       -1.3930130411       -0.4415713139
 C         -2.0341142154       -1.3964584987        0.3186540825
 C          1.5193209748       -0.4400288771       -0.3746301472
 C          2.3958241925        0.4951640518        0.4522744476
 H          0.0162093914        2.1141368375        1.2671958016
 H         -1.2278812621        2.8549887884        0.2519711375
 H         -1.6010201602        1.4223262757        1.2192600079
 H          0.3336954707        1.5419512688       -1.1442496872
 H         -1.2851842026        0.8504169033       -1.1929256012
 H         -0.9124008417       -1.4263456467       -1.5292368328
 H         -0.1631080358       -2.3015163810       -0.1797773943
 H         -1.8419728156       -1.3379714497        1.3864352049
 H         -2.6584302460       -0.5550566802        0.0309441433
 H         -2.5775944821       -2.3145209542        0.1076590142
 H          1.7831651401       -1.4702975995       -0.1219793057
 H          1.7371201638       -0.2940644109       -1.4496423086
 H          2.2339741901        1.5342204489        0.1790337602
 H          2.1667446641        0.3731926668        1.5073286151
 H          3.4443449739        0.2571022660        0.2890006433
  22
        -23.41527610
 C         -0.9967972927        2.4022531292        0.4671850089
 C         -0.8454648139        1.1946416229       -0.4576525187
 N          0.0487569478        0.2142316705        0.1421066786
 C         -0.6278889212       -0.9469275977        0.6821696087
 C         -1.1251867914       -1.9764916025       -0.3421193349
 C          1.2425373136       -0.0530950594       -0.6373845836
 C          2.3085042159       -0.7911522561        0.1656415033
 H         -1.4046499230        2.0901880680        1.4249069814
 H         -0.0270353860        2.8596653755        0.6424090209
 H         -1.6617743155        3.1401430470        0.0246233123
 H         -0.4505921613        1.5277419017       -1.4225588770
 H         -1.8349101914        0.7621831746       -0.6461610545
 H          0.0510825527       -1.4395662074        1.3825072599
 H         -1.4781785847       -0.5770697871        1.2613618944
 H         -1.7032442503       -2.7458191897        0.1636186377
 H         -1.7594285911       -1.5042293733       -1.0898253100
 H         -0.2904925731       -2.4533872161       -0.8500393413
 H          1.0273125014       -0.6152973176       -1.5641939953
 H          1.6487098385        0.9194734676       -0.9297758306
 H          2.4517407198       -0.3011613804        1.1249751781
 H          2.0324549189       -1.8278466670        0.3386789446
 H          3.2493068584       -0.7771144196       -0.3796041663
  22
        -23.41497482
 C         -0.7060154453        1.8792710141        0.7510064016
 C         -0.7440502382        1.2017789471       -0.6264437213
 N          0.0091172878       -0.0154651297       -0.7862258049
 C         -0.6689079184       -1.2689234592       -0.5773113338
 C         -1.2749475038       -1.5203311027        0.8109671329
 C          1.4335245476        0.0319886444       -0.5781750793
 C          1.9533773869       -0.3118831839        0.8251507728
 H          0.2965060410        2.2347414453        0.9756449533
 H         -1.3768467829        2.7358319240        0.7498028786
 H         -1.0191235898        1.1972100585        1.5361883948
 H         -0.3726991101        1.9237589128       -1.3667985300
 H         -1.7815692506        0.9726978866       -0.8833375474
 H         -1.4797382496       -1.3369338549       -1.3156819296
 H          0.0480127229       -2.0625855878       -0.8032664655
 H         -2.0839963284       -0.8214669209        1.0082205654
 H         -1.6814569685       -2.5287880556        0.8493109068
 H         -0.5278717018       -1.4197937216        1.5929584460
 H          1.8980907027       -0.6650909843       -1.2891699065
 H          1.7628112677        1.0398449044       -0.8441354497
 H          1.4929608073        0.3159222488        1.5825347883
 H          1.7517745669       -1.3531213442        1.0640226264
 H          3.0300901647       -0.1591301689        0.8578066469
  22
        -23.41492890
 C         -1.2615756513        1.9084037759       -0.3047776451
 C         -0.3453150480        1.2369570643        0.7306014003
 N          0.1886095034       -0.0583917411        0.3981219718
 C         -0.6599551317       -1.2153568654        0.5204288477
 C         -1.6763683832       -1.4670981105       -0.6047200538
 C          1.2038256713       -0.0995425059       -0.6340745211
 C          2.5893670248       -0.3172142040       -0.0194892721
 H         -2.2178681844        1.3990292148       -0.3760122342
 H         -1.4460750032        2.9393503103       -0.0116052540
 H         -0.7973883795        1.9091560797       -1.2883079105
 H         -0.8906420748        1.1380984568        1.6742855345
 H          0.5101044450        1.8966634385        0.9123925007
 H         -0.0011679938       -2.0880911389        0.5896980408
 H         -1.1969289234       -1.1323096813        1.4702188509
 H         -2.1255150509       -2.4490475572       -0.4744532960
 H         -2.4698846083       -0.7260303407       -0.5952223583
 H         -1.1905801309       -1.4385669822       -1.5772882057
 H          0.9981933269       -0.9098014876       -1.3404717380
 H          1.2103671566        0.8357246116       -1.2029174913
 H          2.8237377783        0.4894963775        0.6698643017
 H          2.6105216862       -1.2535229433        0.5317022363
 H          3.3498207903       -0.3486361981       -0.7961182695
  22
        -23.41371933
 C         -1.3036369606        2.0250689828       -0.4438532778
 C         -0.5254662103        1.3522385751        0.6883532180
 N          0.1065540167        0.1283319044        0.2405804158
 C         -0.5693935236       -1.1005355958        0.6043634359
 C         -1.3772465467       -1.6743537356       -0.5600832059
 C          1.5492631361        0.0772545584        0.3316878412
 C          2.1479101429       -0.7774747932       -0.7832545906
 H         -1.7239785652        2.9683379637       -0.1025725101
 H         -0.6416978320        2.2168373670       -1.2838559996
 H         -2.1126297230        1.3853931625       -0.7838114491
 H         -1.2117261952        1.1542433287        1.5243465966
 H          0.2339129561        2.0515572083        1.0530842652
 H          0.1705992606       -1.8433837839        0.9201657034
 H         -1.2453763226       -0.9338699438        1.4559825267
 H         -2.1683443897       -0.9887674882       -0.8493471475
 H         -0.7321673657       -1.8344419567       -1.4191517380
 H         -1.8263096200       -2.6227586660       -0.2733588496
 H          1.9325769891        1.0943489083        0.2248736416
 H          1.8898211649       -0.3103507563        1.3103394879
 H          1.8429961382       -1.8160570360       -0.6881611041
 H          1.8141163638       -0.4067567413       -1.7485482944
 H          3.2337420831       -0.7322565228       -0.7434062101
