! r2scan-3c def2/J RI DEFGRID2 scfconv6 printgap
%output
    printlevel normal
end
%cpcm
    smd true
    smdsolvent "water"
end
* xyz 0 1
C -2.2024765928 1.0387800159 0.5883438039
C -2.0893213452 -0.301832463 -0.1273998153
C -0.8170746857 -0.3816539765 -0.9760656307
C 0.4146054068 -0.3912060736 -0.108873393
O 0.5878449174 -1.1073897855 0.8547693463
O 1.3189275418 0.4873213088 -0.5303123227
C 2.5509587232 0.569134947 0.1908198677
H -3.1220787895 1.0837024726 1.1654978071
H -1.3646719307 1.1768347832 1.2693491646
H -2.2023503031 1.8566050249 -0.1283024562
H -2.9544790613 -0.4461187126 -0.7748145703
H -2.0695216299 -1.1090363332 0.6071578168
H -0.7490345933 0.4582265104 -1.6665148299
H -0.8182105759 -1.3132942641 -1.5451232989
H 3.1625891593 1.2815904875 -0.3533134083
H 3.027236924 -0.4112349505 0.2283886689
H 2.3639239514 0.9113535584 1.2093322464
*
