  18
        -22.22107341
 C         -2.5064223453        1.0536848565       -0.0000193256
 C         -1.2067227206        0.3059433390        0.0000820935
 C         -1.2021366533       -1.0850693018        0.0003131934
 C         -0.0082174854       -1.7796851420        0.0001802944
 C          1.1966884853       -1.0966800074       -0.0003659181
 C          1.2158593973        0.2898082533       -0.0006503102
 C          0.0062855693        0.9755811408       -0.0002049430
 C          2.5076419208        1.0511839156        0.0003801084
 H         -3.0927566869        0.7941248796       -0.8808121245
 H         -3.0944575678        0.7916265594        0.8789966054
 H         -2.3394443834        2.1279509406        0.0015539346
 H         -2.1409405613       -1.6205224543        0.0004617137
 H         -0.0131586054       -2.8602481894        0.0001074091
 H          2.1269267876       -1.6468444432       -0.0007283082
 H          0.0167945780        2.0572619390       -0.0005509766
 H          2.5844110434        1.6659834412        0.8967087490
 H          3.3586453172        0.3754866014       -0.0298998008
 H          2.5585135079        1.7142609080       -0.8624431944
