  16
        -19.87629924
 C          2.0290079036        0.0300022225       -0.3914829428
 C          0.7643383643        0.1057118178        0.4615190159
 H          1.0516467694        0.1921158098        1.5177753828
 C         -0.1616791991        1.2656431240        0.0397386157
 C         -1.5424074217        0.6138632825       -0.0354983158
 C         -1.1706486313       -0.8259108515       -0.3852857657
 O          0.0014475712       -1.0929587955        0.3513345118
 H          1.7683500701       -0.0978368853       -1.4397152532
 H          2.6101733702        0.9415309977       -0.2770117634
 H          2.6327120483       -0.8182371389       -0.0802962717
 H         -0.1255516878        2.0911244609        0.7470929641
 H          0.1351987721        1.6367497231       -0.9420602892
 H         -2.0329152656        0.6428604070        0.9378845667
 H         -2.1922388494        1.0720619487       -0.7774125061
 H         -1.9215084064       -1.5610250715       -0.0918792531
 H         -0.9789446874       -0.9225534952       -1.4652056074
  16
        -19.87594937
 C          1.9225533333        0.1401902705       -0.5190520744
 C          0.7836491119        0.0571236395        0.4969393939
 H          1.2126756106        0.0079060105        1.5071940568
 C         -0.2080286705        1.2234747504        0.3642137918
 C         -1.2950705954        0.6312128637       -0.5296894211
 C         -1.3001830586       -0.8228727229       -0.0636563418
 O          0.0342963136       -1.1365265360        0.2836429987
 H          1.5245579680        0.2410248567       -1.5256027251
 H          2.5608162517        0.9920136312       -0.2986448360
 H          2.5156444993       -0.7689784484       -0.4727124442
 H         -0.6235375199        1.4800784856        1.3394633385
 H          0.2604767697        2.1074075181       -0.0623089538
 H         -2.2628942778        1.1108688784       -0.4040004802
 H         -1.0022443592        0.6915498328       -1.5783026479
 H         -1.9457479605       -0.9417219967        0.8195510038
 H         -1.6272794831       -1.5262836741       -0.8331374364
  16
        -19.87593592
 C          1.8000226268        0.0872488211       -0.6339134861
 C          0.7956864895        0.0751489758        0.5204490666
 H          1.3393873722        0.0661224271        1.4710430093
 C         -0.2064425708        1.2329860784        0.4304155398
 C         -1.2955340349        0.6575592484       -0.4792871689
 C         -1.1415766181       -0.8651339336       -0.3035164719
 O         -0.0073993816       -1.0912785466        0.5132837377
 H          2.4587530557        0.9472077723       -0.5450465469
 H          2.3982399420       -0.8198697198       -0.6061512854
 H          1.2845180209        0.1332156744       -1.5897126678
 H         -0.6116139863        1.4458716899        1.4197777192
 H          0.2437179577        2.1384014248        0.0303648631
 H         -2.2885950830        0.9967940260       -0.1926461200
 H         -1.1246758993        0.9427803932       -1.5170097587
 H         -1.9990612596       -1.3156075088        0.2045333843
 H         -1.0130609904       -1.3669175717       -1.2715185160
  16
        -19.87569000
 C          1.8621232533        0.0309428797       -0.5811661385
 C          0.7891683717        0.0872577856        0.5087258390
 H          1.2770023880        0.1153636842        1.4886896326
 C         -0.1768783099        1.2729206206        0.3050497740
 C         -1.4382686367        0.6339338580       -0.2977683613
 C         -1.0783265071       -0.8577793431       -0.3980315226
 O         -0.0233978591       -1.0726684036        0.5108909555
 H          1.4071437339        0.0536630379       -1.5682734548
 H          2.5341973267        0.8794142895       -0.4838451442
 H          2.4358006531       -0.8871093122       -0.4829309847
 H         -0.4020678844        1.7494017276        1.2577880677
 H          0.2602643515        2.0188506004       -0.3559624701
 H         -2.2950036684        0.7752444143        0.3592051540
 H         -1.6834502495        1.0463635891       -1.2746116750
 H         -1.8965282157       -1.5195898263       -0.1103264369
 H         -0.7632661139       -1.1143274630       -1.4198395895
  16
        -19.87268728
 C          1.8071807496        0.1093179048       -0.6366602535
 C          0.7938694489        0.0738088628        0.5232897726
 H          1.3233943314        0.0529125145        1.4806409437
 C         -0.2255029364        1.2162644155        0.4559965291
 C         -1.2435418363        0.6549460435       -0.5351355928
 C         -1.1867340676       -0.8526236497       -0.2484700754
 O          0.0010409644       -1.1025894779        0.4872150997
 H          1.6514350969       -0.7565310945       -1.2751107967
 H          1.6915491837        1.0070939400       -1.2384332684
 H          2.8270121432        0.0738512845       -0.2648112957
 H         -0.6881589723        1.3527127858        1.4343678781
 H          0.2143639257        2.1582187748        0.1376332358
 H         -2.2422251991        1.0606418556       -0.3903286161
 H         -0.9287518433        0.8599063228       -1.5585645383
 H         -2.0303923042       -1.1829071961        0.3675509847
 H         -1.1825572374       -1.4440474934       -1.1719037997
