  16
  -19.8762992400000       0.130536402883837      !mtd10
 C          2.0290079036        0.0300022225       -0.3914829428
 C          0.7643383643        0.1057118178        0.4615190159
 H          1.0516467694        0.1921158098        1.5177753828
 C         -0.1616791991        1.2656431240        0.0397386157
 C         -1.5424074217        0.6138632825       -0.0354983158
 C         -1.1706486313       -0.8259108515       -0.3852857657
 O          0.0014475712       -1.0929587955        0.3513345118
 H          1.7683500701       -0.0978368853       -1.4397152532
 H          2.6101733702        0.9415309977       -0.2770117634
 H          2.6327120483       -0.8182371389       -0.0802962717
 H         -0.1255516878        2.0911244609        0.7470929641
 H          0.1351987721        1.6367497231       -0.9420602892
 H         -2.0329152656        0.6428604070        0.9378845667
 H         -2.1922388494        1.0720619487       -0.7774125061
 H         -1.9215084064       -1.5610250715       -0.0918792531
 H         -0.9789446874       -0.9225534952       -1.4652056074
  16
  -19.8762991900000       0.130529496419059      !mtd11
 C          2.0295815645        0.0300144698       -0.3906135349
 C          0.7642161296        0.1058308855        0.4611742774
 H          1.0505439953        0.1925831952        1.5176569831
 C         -0.1617710225        1.2654216422        0.0386143273
 C         -1.5426189799        0.6138354320       -0.0344037872
 C         -1.1709773017       -0.8256405566       -0.3852059752
 O          0.0015863893       -1.0930688090        0.3506710301
 H          2.6322508017       -0.8189608036       -0.0795128592
 H          1.7698422653       -0.0968203906       -1.4391751380
 H          2.6112703506        0.9410566753       -0.2750179423
 H         -0.1247558118        2.0919560855        0.7446810381
 H          0.1342661371        1.6349164433       -0.9440507370
 H         -2.0311220176        0.6422420514        0.9399608313
 H         -2.1939595408        1.0723215705       -0.7747285081
 H         -1.9215601676       -1.5609273194       -0.0917663383
 H         -0.9799049844       -0.9216450658       -1.4651918737
  16
  -19.8762991900000       0.130529496419059      !mtd1
 C          2.0280447348        0.0296262453       -0.3927488556
 C          0.7644654200        0.1057226008        0.4618071139
 H          1.0530042044        0.1919888992        1.5176780673
 C         -0.1618036381        1.2659502705        0.0410643755
 C         -1.5422067645        0.6136831398       -0.0364271426
 C         -1.1695129939       -0.8258309144       -0.3861355287
 O          0.0011104182       -1.0928054134        0.3528053235
 H          2.6092327953        0.9413395487       -0.2797763052
 H          2.6323334456       -0.8183199778       -0.0818347630
 H          1.7659508783       -0.0988865346       -1.4405126742
 H         -0.1268327819        2.0903679193        0.7498174805
 H          0.1357877137        1.6387350152       -0.9399180613
 H         -2.0338784455        0.6418109436        0.9363378515
 H         -2.1912949530        1.0720946956       -0.7787798809
 H         -1.9207081639       -1.5612189250       -0.0944821016
 H         -0.9757982640       -0.9216697315       -1.4656565143
  16
  -19.8759493700000       9.014518236171472E-002 !mtd14
 C          1.9225533333        0.1401902705       -0.5190520744
 C          0.7836491119        0.0571236395        0.4969393939
 H          1.2126756106        0.0079060105        1.5071940568
 C         -0.2080286705        1.2234747504        0.3642137918
 C         -1.2950705954        0.6312128637       -0.5296894211
 C         -1.3001830586       -0.8228727229       -0.0636563418
 O          0.0342963136       -1.1365265360        0.2836429987
 H          1.5245579680        0.2410248567       -1.5256027251
 H          2.5608162517        0.9920136312       -0.2986448360
 H          2.5156444993       -0.7689784484       -0.4727124442
 H         -0.6235375199        1.4800784856        1.3394633385
 H          0.2604767697        2.1074075181       -0.0623089538
 H         -2.2628942778        1.1108688784       -0.4040004802
 H         -1.0022443592        0.6915498328       -1.5783026479
 H         -1.9457479605       -0.9417219967        0.8195510038
 H         -1.6272794831       -1.5262836741       -0.8331374364
  16
  -19.8759493700000       9.014518236171472E-002 !md4
 C          1.9220205308        0.1401952273       -0.5195809117
 C          0.7836613521        0.0571997087        0.4971258620
 H          1.2132226006        0.0080734194        1.5071749134
 C         -0.2080769263        1.2234645756        0.3646437884
 C         -1.2946805973        0.6313188488       -0.5299063706
 C         -1.2999577941       -0.8229406506       -0.0643156151
 O          0.0342878931       -1.1366050217        0.2844948002
 H          2.5616490189        0.9908123992       -0.2983781968
 H          2.5138327771       -0.7698698180       -0.4749726217
 H          1.5235147605        0.2430674681       -1.5257513081
 H         -0.6240072384        1.4796770702        1.3398301689
 H          0.2604693545        2.1076291363       -0.0614045854
 H         -2.2625983570        1.1108655135       -0.4044175264
 H         -1.0014716150        0.6921029469       -1.5784019428
 H         -1.9464681426       -0.9423960181        0.8181814756
 H         -1.6260954685       -1.5261489897       -0.8344854159
  16
  -19.8759493700000       9.014518236171472E-002 !mtd11
 C          1.9200536161        0.1399910350       -0.5217095129
 C          0.7839760508        0.0574018419        0.4976678862
 H          1.2159495262        0.0090116678        1.5066661638
 C         -0.2082687806        1.2232245803        0.3662680762
 C         -1.2936531018        0.6318149625       -0.5302165812
 C         -1.2987049316       -0.8234477799       -0.0677126378
 O          0.0340282769       -1.1363168643        0.2883548580
 H          2.5126748587       -0.7695674487       -0.4772863756
 H          1.5194026454        0.2415371745       -1.5272328618
 H          2.5595685691        0.9912960125       -0.3027941735
 H         -0.6252570725        1.4772686461        1.3415757624
 H          0.2599231378        2.1085073925       -0.0578165885
 H         -2.2620485111        1.1103777613       -0.4045848050
 H         -0.9997639649        0.6950749732       -1.5783741039
 H         -1.9496748770       -0.9459819951        0.8109621624
 H         -1.6198046506       -1.5252694661       -0.8412855861
  16
  -19.8759359200000       8.887125837299570E-002 !mtd1
 C          1.8000226268        0.0872488211       -0.6339134861
 C          0.7956864895        0.0751489758        0.5204490666
 H          1.3393873722        0.0661224271        1.4710430093
 C         -0.2064425708        1.2329860784        0.4304155398
 C         -1.2955340349        0.6575592484       -0.4792871689
 C         -1.1415766181       -0.8651339336       -0.3035164719
 O         -0.0073993816       -1.0912785466        0.5132837377
 H          2.4587530557        0.9472077723       -0.5450465469
 H          2.3982399420       -0.8198697198       -0.6061512854
 H          1.2845180209        0.1332156744       -1.5897126678
 H         -0.6116139863        1.4458716899        1.4197777192
 H          0.2437179577        2.1384014248        0.0303648631
 H         -2.2885950830        0.9967940260       -0.1926461200
 H         -1.1246758993        0.9427803932       -1.5170097587
 H         -1.9990612596       -1.3156075088        0.2045333843
 H         -1.0130609904       -1.3669175717       -1.2715185160
  16
  -19.8759359000000       8.886937753093388E-002 !md5
 C          1.8001139060        0.0875522300       -0.6338571246
 C          0.7956910048        0.0750405134        0.5204971477
 H          1.3393053201        0.0659401182        1.4711661074
 C         -0.2065015064        1.2327990817        0.4305210763
 C         -1.2952086208        0.6576049906       -0.4797666894
 C         -1.1421176288       -0.8650369839       -0.3029622866
 O         -0.0072193498       -1.0914469701        0.5129753611
 H          2.3994613600       -0.8188032335       -0.6054990773
 H          1.2846931723        0.1321340090       -1.5896798550
 H          2.4576339528        0.9485029012       -0.5457455800
 H         -0.6120331261        1.4452114122        1.4198568500
 H          0.2437008429        2.1384436449        0.0309932926
 H         -2.2883985699        0.9975243705       -0.1942288435
 H         -1.1231855104        0.9421481584       -1.5175190520
 H         -1.9994447765       -1.3144147118        0.2064040992
 H         -1.0148513689       -1.3678096836       -1.2706107511
  16
  -19.8759358400000       8.886373524291008E-002 !md1
 C          1.8001782880        0.0881321688       -0.6337363877
 C          0.7956769105        0.0750548349        0.5204512859
 H          1.3392852942        0.0654706546        1.4711141863
 C         -0.2068469849        1.2324766191        0.4311269103
 C         -1.2939073746        0.6576008724       -0.4811950103
 C         -1.1433624945       -0.8648746714       -0.3014091378
 O         -0.0069150161       -1.0918128462        0.5120895850
 H          1.2850660953        0.1366209378       -1.5896108353
 H          2.4601135922        0.9468995163       -0.5430572786
 H          2.3970161763       -0.8199039978       -0.6075391042
 H         -0.6138801002        1.4429793287        1.4202275205
 H          0.2431087924        2.1390560453        0.0334850949
 H         -2.2873736492        0.9995990550       -0.1991590696
 H         -1.1182667411        0.9402604436       -1.5188772049
 H         -2.0004539573       -1.3111608263        0.2111130421
 H         -1.0197193283       -1.3702604087       -1.2680978260
  16
  -19.8756900000000       6.850847854143916E-002 !mtd3
 C          1.8621232533        0.0309428797       -0.5811661385
 C          0.7891683717        0.0872577856        0.5087258390
 H          1.2770023880        0.1153636842        1.4886896326
 C         -0.1768783099        1.2729206206        0.3050497740
 C         -1.4382686367        0.6339338580       -0.2977683613
 C         -1.0783265071       -0.8577793431       -0.3980315226
 O         -0.0233978591       -1.0726684036        0.5108909555
 H          1.4071437339        0.0536630379       -1.5682734548
 H          2.5341973267        0.8794142895       -0.4838451442
 H          2.4358006531       -0.8871093122       -0.4829309847
 H         -0.4020678844        1.7494017276        1.2577880677
 H          0.2602643515        2.0188506004       -0.3559624701
 H         -2.2950036684        0.7752444143        0.3592051540
 H         -1.6834502495        1.0463635891       -1.2746116750
 H         -1.8965282157       -1.5195898263       -0.1103264369
 H         -0.7632661139       -1.1143274630       -1.4198395895
  16
  -19.8726872800000       2.856207504621694E-003 !mtd3
 C          1.8071807496        0.1093179048       -0.6366602535
 C          0.7938694489        0.0738088628        0.5232897726
 H          1.3233943314        0.0529125145        1.4806409437
 C         -0.2255029364        1.2162644155        0.4559965291
 C         -1.2435418363        0.6549460435       -0.5351355928
 C         -1.1867340676       -0.8526236497       -0.2484700754
 O          0.0010409644       -1.1025894779        0.4872150997
 H          1.6514350969       -0.7565310945       -1.2751107967
 H          1.6915491837        1.0070939400       -1.2384332684
 H          2.8270121432        0.0738512845       -0.2648112957
 H         -0.6881589723        1.3527127858        1.4343678781
 H          0.2143639257        2.1582187748        0.1376332358
 H         -2.2422251991        1.0606418556       -0.3903286161
 H         -0.9287518433        0.8599063228       -1.5585645383
 H         -2.0303923042       -1.1829071961        0.3675509847
 H         -1.1825572374       -1.4440474934       -1.1719037997
