  8
  -14.9503507300000       0.914866665467948      !md2
 C          1.2282794605        0.5641112890        0.0000625249
 C          0.2835604154       -0.6154076148        0.0000616563
 Br        -1.5558024403        0.0278289076       -0.0000116843
 Cl         2.9086729738       -0.0425086568       -0.0000275087
 H          1.1016052985        1.1785693026       -0.8921476648
 H          1.1015983519        1.1785833924        0.8923088324
 H          0.4039640607       -1.2283435056        0.8923517582
 H          0.4039906343       -1.2284832205       -0.8920988471
  8
  -14.9474517400000       4.256711770430043E-002 !md3
 C          1.2577385557        0.3101929052        1.1439496937
 C          0.0317337581       -0.5730214020        1.1033483793
 Br        -1.2256866918        0.0067547816       -0.2692497170
 Cl         2.2499944079        0.0944050111       -0.3285012238
 H          0.9891220422        1.3654806814        1.2002641237
 H          1.8836280359        0.0399196518        1.9958531981
 H         -0.5038868008       -0.5242942264        2.0517243097
 H          0.2904935222       -1.6052273988        0.8719977564
  8
  -14.9474517200000       4.256621682775154E-002 !mtd7
 C          1.2574988210        0.3101806452       -1.1439311568
 C          0.0316425078       -0.5733314422       -1.1032798062
 Br        -1.2256685476        0.0068257498        0.2692379519
 Cl         2.2500876701        0.0943809407        0.3284835039
 H          1.8834456996        0.0397708166       -1.9957929768
 H          0.9887664039        1.3654564379       -1.2002312946
 H          0.2902978817       -1.6054709743       -0.8715829519
 H         -0.5039278244       -0.5248162881       -2.0517142329
