  8
        -14.95035073
 C          1.2282794605        0.5641112890        0.0000625249
 C          0.2835604154       -0.6154076148        0.0000616563
 Br        -1.5558024403        0.0278289076       -0.0000116843
 Cl         2.9086729738       -0.0425086568       -0.0000275087
 H          1.1016052985        1.1785693026       -0.8921476648
 H          1.1015983519        1.1785833924        0.8923088324
 H          0.4039640607       -1.2283435056        0.8923517582
 H          0.4039906343       -1.2284832205       -0.8920988471
