! pbe def2-sv(p) def2/J RI DEFGRID1 loosescf d4 GCP(DFT/SV(P)) printgap
%output
    printlevel normal
end
* xyz 0 1
C 1.560051432 -0.3283019909 -1.1139522107
C 1.3150291444 -0.1192128781 0.3783771417
H 2.1031208526 -0.6499925257 0.9303847054
C -0.0212532673 -0.6762739849 0.9126738599
C -1.3594681941 -0.3336866096 0.2294993118
C -1.5436412329 1.1567817507 -0.0522121758
C -1.6291324891 -1.1574745899 -1.0303406127
O 1.5206454449 1.2346775739 0.7495835016
H 1.4182240763 -1.3729610938 -1.3718734854
H 0.8898698647 0.2844382685 -1.7105076534
H 2.5824540067 -0.0429085605 -1.3527146252
H 0.0700689577 -1.764122241 0.9352923303
H -0.0804298846 -0.334998582 1.9502052573
H -2.1267044075 -0.6214916845 0.9601513015
H -2.5776283121 1.3536404614 -0.328492939
H -0.9168267273 1.4825499148 -0.8788484294
H -1.3119371316 1.7448610485 0.8325848448
H -0.9874124241 -0.8624307801 -1.8535700907
H -1.4742133913 -2.2157298337 -0.834259688
H -2.6620504665 -1.0180066978 -1.3428762862
H 0.9361727097 1.7946690295 0.2208948904
*
