  14
        -13.66512776
 C          1.9379280523       -0.1336695738        0.0000289172
 C          0.5606774207        0.5180947989       -0.0000346759
 C         -0.5606787477       -0.5180966341       -0.0000349591
 C         -1.9379276314        0.1336708019        0.0000291038
 H          2.7203077388        0.6218585905        0.0003070764
 H          2.0640993480       -0.7586993625        0.8816464595
 H          2.0643749526       -0.7583807590       -0.8817788396
 H          0.4608680083        1.1557067494        0.8815779102
 H          0.4609137291        1.1556570793       -0.8816887265
 H         -0.4609211878       -1.1556678762       -0.8816809668
 H         -0.4608591114       -1.1556993577        0.8815836008
 H         -2.0642754876        0.7585684051       -0.8816612268
 H         -2.0641872624        0.7585199712        0.8817601834
 H         -2.7203099296       -0.6218562058        0.0000729319
  14
        -13.66417743
 C          1.5704359533       -0.0341154707        0.5635565800
 C          0.6720563020        0.3645183864       -0.6015530483
 C         -0.6720644368       -0.3645131357       -0.6015499002
 C         -1.5704253237        0.0341060151        0.5635562474
 H          1.7287342152       -1.1106430591        0.5705427242
 H          2.5388504974        0.4539252056        0.4776682020
 H          1.1296946919        0.2556026637        1.5138324654
 H          0.4958524084        1.4423413957       -0.5714561164
 H          1.1896058567        0.1409545512       -1.5377615732
 H         -1.1896453889       -0.1409751006       -1.5377664931
 H         -0.4958891334       -1.4423537801       -0.5713609769
 H         -1.1295439493       -0.2552955479        1.5138028793
 H         -2.5387584479       -0.4540913212        0.4778555342
 H         -1.7289304792        1.1105851023        0.5702067491
  14
        -13.66040705
 C          1.5885434646       -0.0395048535       -0.5557968385
 C          0.6603921969        0.3759009820        0.5942189108
 C         -0.6704179482       -0.3781530849        0.5942151181
 C         -1.5784758604        0.0413189032       -0.5557965355
 H          2.5021271471       -0.4912580217       -0.1774670082
 H          1.1048629470       -0.7680851960       -1.2013100508
 H          1.8679044787        0.8140632978       -1.1678927498
 H          1.1601032835        0.1971851547        1.5482098672
 H          0.4511606505        1.4458552311        0.5370327557
 H         -0.4766358494       -1.4517670375        0.5372010718
 H         -1.1857704710       -0.1859274396        1.5384447748
 H         -2.5095785968       -0.5205744026       -0.5307433516
 H         -1.0994876953       -0.1351305737       -1.5157251143
 H         -1.8151846497        1.1008592061       -0.4834492787
