! r2scan-3c def2/J RI DEFGRID2 scfconv6 printgap
%output
    printlevel normal
end
* xyz 0 1
C 2.4181295597 -0.3061567736 -0.2613760415
C 1.0972516749 -0.1322953655 0.4780859137
C -0.0359959019 0.263748513 -0.4739720417
C -1.3234628495 0.4555799308 0.2608974329
C -2.4287170259 -0.2286737942 0.0321767634
H 3.2071557341 -0.59054507 0.4304664467
H 2.7064645301 0.6219198102 -0.7501165378
H 2.3308358118 -1.0802890488 -1.0204445099
H 0.8315629968 -1.0660939189 0.9786935084
H 1.2072907098 0.6365028028 1.2461240667
H -0.156709439 -0.5046840762 -1.2398412667
H 0.2346992717 1.2000677174 -0.9705545557
H -1.3023990811 1.2098547996 1.0375655448
H -3.3326667159 -0.0606024287 0.5924668023
H -2.4755832152 -0.9881816032 -0.7310996579
*
