  8
        -14.44337813
 C          1.4041886237        0.5189820819        0.0000151436
 O          0.5833546932       -0.6477437115        0.0000490831
 C         -0.7262254966       -0.4779708358       -0.0001566768
 O         -1.3212185876        0.5582137454        0.0000720624
 H          0.7784650357        1.4128284326        0.0190910534
 H          2.0165923106        0.5062285760       -0.9013318582
 H          2.0429693120        0.4852682649        0.8820957777
 H         -1.2043680885       -1.4718521488       -0.0000914044
  8
        -14.44336963
 C          1.3801580285        0.5251329019        0.0000418859
 O          0.5854243676       -0.6585048637        0.0000062788
 C         -0.7239716987       -0.4817502666       -0.0000976745
 O         -1.3005287614        0.5645728014        0.0000487089
 H          1.1580157652        1.1276498924        0.8826333747
 H          1.1724802779        1.1179498111       -0.8926083519
 H          2.4162350020        0.1980257350        0.0100276154
 H         -1.2148457103       -1.4695329639       -0.0002606877
  8
        -14.43538443
 C          1.7550464209        0.1878970927       -0.0000318165
 O          0.4823350554       -0.4234446101        0.0000491988
 C         -0.6085892447        0.3270927520        0.0000169279
 O         -1.7128585464       -0.1159682830       -0.0000378939
 H          2.2955530380       -0.1356872397       -0.8909605704
 H          2.2969068053       -0.1387189946        0.8889498225
 H          1.6699960715        1.2787420867        0.0018631143
 H         -0.3912976660        1.4212417021        0.0001456046
  8
        -14.43497055
 C          1.7478764487        0.1971602446        0.0026141264
 O          0.4826721004       -0.4388355079       -0.0061449579
 C         -0.6029034863        0.3253549128        0.0069255904
 O         -1.7114506059       -0.1075157447       -0.0037615727
 H          2.4877563924       -0.5998244255        0.0207074041
 H          1.8644309172        0.8261037573        0.8888483637
 H          1.8857972908        0.8044691483       -0.8955858185
 H         -0.3768390807        1.4152904873        0.0296028323
