  8
  -14.4433781300000       0.167403746957054      !mtd3
 C          1.4041886237        0.5189820819        0.0000151436
 O          0.5833546932       -0.6477437115        0.0000490831
 C         -0.7262254966       -0.4779708358       -0.0001566768
 O         -1.3212185876        0.5582137454        0.0000720624
 H          0.7784650357        1.4128284326        0.0190910534
 H          2.0165923106        0.5062285760       -0.9013318582
 H          2.0429693120        0.4852682649        0.8820957777
 H         -1.2043680885       -1.4718521488       -0.0000914044
  8
  -14.4433781000000       0.167398432668153      !md1
 C          1.4042269882        0.5189319502        0.0000591384
 O          0.5833840482       -0.6476755925       -0.0000510926
 C         -0.7262749004       -0.4779502250       -0.0000431647
 O         -1.3212789919        0.5581867004        0.0000121632
 H          2.0195070256        0.5037102675        0.8994275675
 H          0.7784704876        1.4129339288       -0.0148659660
 H          2.0403005148        0.4875372490       -0.8840375673
 H         -1.2039950274       -1.4720085320       -0.0000964251
  8
  -14.4433778600000       0.167355924428264      !gc
 C          1.4039765069        0.5190319092        0.0002177980
 O          0.5833746230       -0.6478463899       -0.0003513142
 C         -0.7261773684       -0.4779779722        0.0003367587
 O         -1.3210567527        0.5582671791       -0.0001598454
 H          2.0792960593        0.4566667768       -0.8523108106
 H          1.9777360400        0.5365066331        0.9268202363
 H          0.7801112695        1.4114030957       -0.0727891675
 H         -1.2044159038       -1.4718304117       -0.0002146865
  8
  -14.4433696300000       0.165904759359690      !md2
 C          1.3801580285        0.5251329019        0.0000418859
 O          0.5854243676       -0.6585048637        0.0000062788
 C         -0.7239716987       -0.4817502666       -0.0000976745
 O         -1.3005287614        0.5645728014        0.0000487089
 H          1.1580157652        1.1276498924        0.8826333747
 H          1.1724802779        1.1179498111       -0.8926083519
 H          2.4162350020        0.1980257350        0.0100276154
 H         -1.2148457103       -1.4695329639       -0.0002606877
  8
  -14.4433696300000       0.165904759359690      !md1
 C          1.3799418376        0.5251508496        0.0000770815
 O          0.5854531185       -0.6585290261       -0.0000751818
 C         -0.7240031702       -0.4818294634       -0.0000062585
 O         -1.3003188816        0.5646233847       -0.0000001562
 H          2.4161395393        0.1982785221        0.0056368483
 H          1.1608544293        1.1254473825        0.8849860487
 H          1.1690222721        1.1202614774       -0.8903284228
 H         -1.2149675702       -1.4695844152        0.0000574538
  8
  -14.4433696200000       0.165903003773540      !md4
 C          1.3800900700        0.5251710361        0.0000007959
 O          0.5854383335       -0.6585521759        0.0000831553
 C         -0.7239844030       -0.4817918447       -0.0001956601
 O         -1.3004583472        0.5646143517        0.0000926284
 H          1.1797269359        1.1126603824       -0.8978488516
 H          2.4160852371        0.1983784559        0.0204019341
 H          1.1505055061        1.1328092577        0.8772185574
 H         -1.2148105445       -1.4696231161       -0.0002398607
  8
  -14.4353844300000       3.549073639014661E-005 !md5
 C          1.7550464209        0.1878970927       -0.0000318165
 O          0.4823350554       -0.4234446101        0.0000491988
 C         -0.6085892447        0.3270927520        0.0000169279
 O         -1.7128585464       -0.1159682830       -0.0000378939
 H          2.2955530380       -0.1356872397       -0.8909605704
 H          2.2969068053       -0.1387189946        0.8889498225
 H          1.6699960715        1.2787420867        0.0018631143
 H         -0.3912976660        1.4212417021        0.0001456046
  8
  -14.4353844300000       3.549073639014661E-005 !md6
 C          1.7550296796        0.1878967270       -0.0000567458
 O          0.4823544470       -0.4234577829        0.0001124646
 C         -0.6085544720        0.3270044166       -0.0000505485
 O         -1.7128895945       -0.1158844153        0.0000007472
 H          1.6699788986        1.2787240707        0.0000922150
 H          2.2960672190       -0.1370792597       -0.8901269813
 H          2.2963521636       -0.1372996267        0.8897538103
 H         -0.3912698756        1.4211671980       -0.0002375564
  8
  -14.4353843600000       3.548810755956883E-005 !md6
 C          1.7550288825        0.1879032612       -0.0006483893
 O          0.4823505002       -0.4234674961        0.0015129099
 C         -0.6086031905        0.3271331000       -0.0016027190
 O         -1.7128458269       -0.1159899145        0.0008445872
 H          2.2932605544       -0.1268874456        0.8948933096
 H          1.6699335075        1.2786987791       -0.0133338567
 H          2.2992911722       -0.1473545410       -0.8849544082
 H         -0.3913988721        1.4212731029       -0.0072018084
  8
  -14.4349705500000       2.290387326984405E-005 !gc
 C          1.7478764487        0.1971602446        0.0026141264
 O          0.4826721004       -0.4388355079       -0.0061449579
 C         -0.6029034863        0.3253549128        0.0069255904
 O         -1.7114506059       -0.1075157447       -0.0037615727
 H          2.4877563924       -0.5998244255        0.0207074041
 H          1.8644309172        0.8261037573        0.8888483637
 H          1.8857972908        0.8044691483       -0.8955858185
 H         -0.3768390807        1.4152904873        0.0296028323
