  18
        -25.47438610
 C         -2.4142761053       -0.7019656014       -0.0000302501
 C         -2.4142756364        0.7019694346        0.0000165628
 C         -1.2347512639        1.3919054905        0.0000227866
 C          0.0000004235        0.7098371142        0.0000098477
 C          1.2347499997        1.3919038626       -0.0000155600
 C          2.4142774354        0.7019685536       -0.0000250603
 C          2.4142770924       -0.7019662941        0.0000042959
 C          1.2347536732       -1.3919046440        0.0000257325
 C         -0.0000008478       -0.7098421291        0.0000098668
 C         -1.2347548241       -1.3919070913       -0.0000203168
 H         -3.3561932488       -1.2311809415       -0.0000153020
 H         -3.3561896810        1.2311909313        0.0000018477
 H         -1.2295793993        2.4729599663        0.0000018596
 H          1.2295873356        2.4729573087       -0.0000172686
 H          3.3561884125        1.2311933169       -0.0000168253
 H          3.3561924318       -1.2311876308        0.0000294121
 H          1.2295828866       -2.4729573643        0.0000313536
 H         -1.2295881032       -2.4729600437        0.0000098872
