! r2scan-3c def2/J RI DEFGRID2 scfconv6 printgap
%output
    printlevel normal
end
* xyz 0 1
C -2.2134532534 0.9211274716 0.1906703211
C -0.8576064727 0.6622499137 -0.4552678573
C -0.0364535842 -0.413140002 0.265096558
H -0.0674505752 -0.210069481 1.3423830251
C -0.5808023526 -1.8166267858 0.0148867617
C 1.4279765903 -0.3399390858 -0.1915264768
O 2.0500886022 0.8905296013 0.1107102989
H -2.8410023629 0.0346581134 0.1515182848
H -2.0920897387 1.2118718289 1.2318236821
H -2.7285674121 1.7240919544 -0.3306762571
H -0.2786921081 1.5890695557 -0.4561861745
H -0.9988557838 0.3625261229 -1.4960114427
H 0.0187035333 -2.5572555944 0.5390141378
H -0.5582164694 -2.0460330349 -1.047965144
H -1.605369743 -1.8976858893 0.3653438082
H 1.4818028633 -0.4307707796 -1.2794737352
H 1.9976693135 -1.1686926051 0.250875833
H 2.0651084852 1.0059623662 1.0709826286
*
