! pbe def2-sv(p) def2/J RI DEFGRID1 loosescf d4 GCP(DFT/SV(P)) printgap
%output
    printlevel normal
end
* xyz 0 1
C -3.630917482 1.0395056526 -0.1923275553
O -2.2951487088 1.4779227895 -0.011933955
C -1.2386582214 0.6356774596 0.0101891021
C -1.183451158 -0.7537629241 -0.0731426977
C 0.0293225271 -1.4286346615 -0.0124007155
C 1.2188587483 -0.7419582166 0.1180533859
C 1.2209367776 0.6502883283 0.1730034751
C -0.0070891653 1.3174846735 0.1345633317
O -0.0471752164 2.6618894592 0.2232220666
O 2.3266450911 1.4555032732 0.3174368145
C 3.3450728287 1.3550975061 -0.6780487781
Cl 2.6798813419 -1.6635954544 0.2612915065
Cl -2.5836063786 -1.7749922129 -0.2331461736
H -4.2141025387 1.9582330904 -0.1983234613
H -3.9592963121 0.4035799071 0.6308569859
H -3.7576139158 0.5189186711 -1.1424375785
H 0.0355380903 -2.5049594619 -0.0588313161
H 0.8633555848 2.9926885319 0.3423957112
H 2.9163744776 1.4567895587 -1.676981836
H 3.8885710699 0.4134178851 -0.608214736
H 4.0202309701 2.1820808184 -0.4733744098
*
