  12
  -14.5545622600000       3.818945055660112E-002 !mtd1
 C          1.5703916985       -0.5281114847       -0.1107074576
 C          0.6119917602        0.5921007870        0.2910202980
 O         -0.6540610767        0.5187116665       -0.3248470963
 C         -1.4665052073       -0.5331192226        0.1301344926
 H          1.2403278401       -1.4875548285        0.2802969560
 H          1.6300010881       -0.5922145285       -1.1943225718
 H          2.5597281702       -0.3169656222        0.2856743414
 H          1.0174339422        1.5556122612       -0.0287668245
 H          0.4954035751        0.6054849713        1.3862493950
 H         -1.5606581673       -0.5164104387        1.2234564459
 H         -1.0843240151       -1.5127263296       -0.1773806277
 H         -2.4463685172       -0.3786980174       -0.3181422109
  12
  -14.5545622600000       3.818945055660112E-002 !mtd9
 C          1.5704529280       -0.5280228602       -0.1107774501
 C          0.6119988913        0.5920643115        0.2911251835
 O         -0.6539573600        0.5185766567       -0.3249296220
 C         -1.4666646514       -0.5330545068        0.1301804354
 H          1.2402662386       -1.4874952228        0.2800692424
 H          1.6303659637       -0.5919835187       -1.1944469135
 H          2.5596494934       -0.3169545574        0.2858802848
 H          1.0173954571        1.5556020845       -0.0285558058
 H          0.4951868827        0.6055032219        1.3863663062
 H         -1.0849661750       -1.5127598939       -0.1777557586
 H         -2.4465767556       -0.3781394469       -0.3177054376
 H         -1.5603381588       -0.5164947148        1.2235596882
  12
  -14.5545622500000       3.818904643991008E-002 !mtd11
 C          1.5692606039       -0.5262111648        0.1338290923
 C          0.6148891737        0.5879200349       -0.2934474278
 O         -0.6570346629        0.5228756178        0.3112778212
 C         -1.4654144003       -0.5348178591       -0.1373419111
 H          1.6186521804       -0.5743430552        1.2188354690
 H          1.2429235489       -1.4913165103       -0.2462631812
 H          2.5623014369       -0.3207990077       -0.2560792013
 H          0.5087407480        0.5855223755       -1.3898357546
 H          1.0170887879        1.5560506949        0.0163399290
 H         -2.4496744500       -0.3737953788        0.2987514081
 H         -1.0869129878       -1.5102642875        0.1875731402
 H         -1.5484206151       -0.5332079153       -1.2317117795
  12
  -14.5545622500000       3.818904643991008E-002 !mtd4
 C          1.5691876644       -0.5263298565        0.1338087102
 C          0.6149368773        0.5879772331       -0.2932887414
 O         -0.6571907072        0.5230900247        0.3110505304
 C         -1.4652487449       -0.5349472075       -0.1372602661
 H          2.5626959170       -0.3202745303       -0.2546793485
 H          1.6171283388       -0.5758007757        1.2187897535
 H          1.2434830670       -1.4910257931       -0.2478209417
 H          0.5091116425        0.5859061409       -1.3897088283
 H          1.0171994015        1.5559433975        0.0168633024
 H         -1.5480637952       -0.5338214012       -1.2316043730
 H         -2.4495307415       -0.3740264433        0.2986069777
 H         -1.0865214936       -1.5101829375        0.1881503968
  12
  -14.5545622500000       3.818904643991008E-002 !mtd4
 C          1.5694921912       -0.5261116038        0.1338307976
 C          0.6148679820        0.5877612413       -0.2934773680
 O         -0.6570489146        0.5228145961        0.3112867796
 C         -1.4655960721       -0.5347189964       -0.1373219652
 H          2.5626415030       -0.3202343505       -0.2556582752
 H          1.6183327147       -0.5746140706        1.2188395093
 H          1.2435799492       -1.4911591988       -0.2466107818
 H          0.5087630392        0.5852390668       -1.3898782990
 H          1.0170413579        1.5559206168        0.0162425109
 H         -1.0872165264       -1.5102752964        0.1874770836
 H         -1.5487317798       -0.5330200427       -1.2317016604
 H         -2.4498276747       -0.3735134152        0.2988565170
  12
  -14.5545622400000       3.818864232749535E-002 !mtd4
 C          1.5702488723       -0.5281836348       -0.1106815823
 C          0.6120091669        0.5921996714        0.2909895998
 O         -0.6540381554        0.5187913260       -0.3248101987
 C         -1.4664104835       -0.5332229740        0.1301152530
 H          1.6300102242       -0.5925491920       -1.1943353243
 H          2.5595925939       -0.3173346826        0.2858143096
 H          1.2397276992       -1.4873843416        0.2804535779
 H          1.0175686094        1.5554893847       -0.0291948595
 H          0.4954678559        0.6061174270        1.3862526372
 H         -1.0844478410       -1.5126657956       -0.1781864697
 H         -2.4464919672       -0.3783921749       -0.3175320683
 H         -1.5598813140       -0.5170998681        1.2234941373
  12
  -14.5545622400000       3.818864232749535E-002 !mtd14
 C          1.5693757339       -0.5262271833        0.1338386636
 C          0.6149308508        0.5878508966       -0.2934240103
 O         -0.6571576052        0.5230078920        0.3111737311
 C         -1.4654297649       -0.5348602197       -0.1373006453
 H          1.6187646483       -0.5741761355        1.2188559582
 H          1.2428292295       -1.4914079847       -0.2458612192
 H          2.5624760312       -0.3210629358       -0.2561958592
 H          0.5088319569        0.5855320532       -1.3898162295
 H          1.0170836183        1.5560020336        0.0164457531
 H         -1.5501076426       -0.5323439190       -1.2315571503
 H         -2.4490778751       -0.3748860375        0.3004180345
 H         -1.0858352817       -1.5103902707        0.1860881873
  12
  -14.5545622400000       3.818864232749535E-002 !mtd7
 C          1.5694249425       -0.5262086850        0.1338144966
 C          0.6149315723        0.5878246016       -0.2933706434
 O         -0.6571639253        0.5229864390        0.3111169965
 C         -1.4654928851       -0.5348451133       -0.1372711499
 H          1.2432182501       -1.4911181055       -0.2467749659
 H          2.5627737241       -0.3207031532       -0.2554994999
 H          1.6181470954       -0.5748720081        1.2187638621
 H          0.5090760126        0.5857507613       -1.3897379730
 H          1.0171396789        1.5557940228        0.0167681571
 H         -1.0865996307       -1.5101150269        0.1873724551
 H         -1.5489828442       -0.5332282760       -1.2316177662
 H         -2.4495500915       -0.3739879760        0.2993043464
  12
  -14.5545622400000       3.818864232749535E-002 !mtd4
 C          1.5702637788       -0.5281374424       -0.1106791640
 C          0.6121014683        0.5921761427        0.2910096471
 O         -0.6540716746        0.5187393904       -0.3248199317
 C         -1.4664625288       -0.5331988900        0.1301104153
 H          2.5597873865       -0.3170712232        0.2850887121
 H          1.2403107339       -1.4873641090        0.2807970526
 H          1.6293299107       -0.5926903091       -1.1942685832
 H          1.0175278032        1.5555930882       -0.0290505361
 H          0.4955126407        0.6058273223        1.3862439716
 H         -1.5597094942       -0.5171093463        1.2234539205
 H         -1.0846815489       -1.5126374683       -0.1784402422
 H         -2.4466568553       -0.3780998584       -0.3171139217
  12
  -14.5545622400000       3.818864232749535E-002 !mtd3
 C          1.5707008586       -0.5278437411       -0.1108558509
 C          0.6119843484        0.5918564107        0.2912742505
 O         -0.6539385217        0.5184251837       -0.3250944037
 C         -1.4668832536       -0.5328726113        0.1302772437
 H          1.2402783396       -1.4875516699        0.2792239374
 H          1.6307344142       -0.5910754496       -1.1945639889
 H          2.5599437651       -0.3171566784        0.2861527656
 H          1.0173796737        1.5555489049       -0.0279573657
 H          0.4949378652        0.6048317249        1.3864917600
 H         -2.4467814616       -0.3783042406       -0.3180717293
 H         -1.5608785406       -0.5157533514        1.2236655132
 H         -1.0851063442       -1.5126814422       -0.1769093119
  12
  -14.5545622300000       3.818823821942869E-002 !md2
 C          1.5692764919       -0.5261966649        0.1338142016
 C          0.6148803069        0.5878923258       -0.2934247135
 O         -0.6570606060        0.5228878151        0.3112278241
 C         -1.4654161309       -0.5348018197       -0.1373283608
 H          1.6172832379       -0.5755478042        1.2189134350
 H          1.2437120136       -1.4911315632       -0.2475292225
 H          2.5628098808       -0.3200448397       -0.2547437458
 H          0.5089242850        0.5857155008       -1.3898442958
 H          1.0171991640        1.5558935623        0.0166422541
 H         -1.0860352678       -1.5102508273        0.1862853777
 H         -1.5495725584       -0.5323557718       -1.2316532037
 H         -2.4492733308       -0.3746586867        0.3000783741
  12
  -14.5545622300000       3.818823821942869E-002 !md1
 C          1.5705478706       -0.5278672544       -0.1108886555
 C          0.6119473660        0.5919315472        0.2913164635
 O         -0.6538447733        0.5183964828       -0.3251157923
 C         -1.4667984772       -0.5328962259        0.1302784455
 H          2.5594364311       -0.3178474390        0.2872038988
 H          1.2394362731       -1.4878301877        0.2779785826
 H          1.6316152315       -0.5902082208       -1.1945890416
 H          1.0173835209        1.5556444196       -0.0278893191
 H          0.4949484340        0.6047897619        1.3865415874
 H         -2.4466946050       -0.3781864505       -0.3180813013
 H         -1.5609326922       -0.5155305072        1.2236729236
 H         -1.0849194626       -1.5128517551       -0.1765926675
  12
  -14.5545622300000       3.818823821942869E-002 !mtd2
 C          1.5692768700       -0.5262286513        0.1338160062
 C          0.6149242439        0.5879208055       -0.2934075890
 O         -0.6570941628        0.5228969080        0.3112168878
 C         -1.4654191592       -0.5348347243       -0.1373303418
 H          1.2426246520       -1.4913688463       -0.2459232530
 H          2.5622178249       -0.3209155978       -0.2565491012
 H          1.6190058837       -0.5742577097        1.2188202127
 H          0.5090035988        0.5860530910       -1.3899025253
 H          1.0172955035        1.5557900221        0.0169903150
 H         -1.5484480146       -0.5332695392       -1.2317304296
 H         -2.4497019960       -0.3738755192        0.2987396998
 H         -1.0869093574       -1.5102467632        0.1876756911
  12
  -14.5545622300000       3.818823821942869E-002 !mtd8
 C          1.5705251996       -0.5279318953       -0.1108214585
 C          0.6120198792        0.5919928336        0.2912152023
 O         -0.6539326337        0.5184594535       -0.3250010280
 C         -1.4668048975       -0.5329768085        0.1302218219
 H          2.5595201427       -0.3174159033        0.2867399519
 H          1.2397736158       -1.4875845693        0.2790021634
 H          1.6311698130       -0.5910856083       -1.1944840972
 H          1.0174833379        1.5555259074       -0.0284681306
 H          0.4951982449        0.6052717118        1.3864473830
 H         -1.0844220119       -1.5127542630       -0.1767384056
 H         -2.4464794046       -0.3785003117       -0.3185853342
 H         -1.5610933627       -0.5154766713        1.2235900772
  12
  -14.5545622200000       3.818783411556646E-002 !mtd10
 C          1.5701932627       -0.5282371285       -0.1106186682
 C          0.6120560313        0.5922495666        0.2909070799
 O         -0.6541271220        0.5188279416       -0.3247006388
 C         -1.4663254171       -0.5332524649        0.1300582537
 H          1.6289050274       -0.5932238596       -1.1941921086
 H          2.5598936146       -0.3167429910        0.2846711672
 H          1.2405501355       -1.4873383246        0.2814723601
 H          1.0175667195        1.5555245460       -0.0294785778
 H          0.4956875483        0.6062478654        1.3861833781
 H         -2.4457799085       -0.3797091228       -0.3193882841
 H         -1.5615884261       -0.5160092962        1.2232914698
 H         -1.0831861030       -1.5127549748       -0.1766197241
  12
  -14.5545622100000       3.818743001605221E-002 !mtd10
 C          1.5691887920       -0.5263816315        0.1338132957
 C          0.6149116451        0.5879482345       -0.2932178362
 O         -0.6572645182        0.5232063580        0.3109471047
 C         -1.4652178605       -0.5350188939       -0.1371938770
 H          1.2439159784       -1.4910930691       -0.2482711997
 H          2.5626692732       -0.3200867521       -0.2548702920
 H          1.6171770284       -0.5760857395        1.2187927375
 H          0.5093784433        0.5861808641       -1.3897002648
 H          1.0173453180        1.5557640011        0.0172231468
 H         -2.4497257822       -0.3739012968        0.2984347863
 H         -1.0864729519       -1.5100291401        0.1885733864
 H         -1.5476940887       -0.5340610411       -1.2316343436
  12
  -14.5545622100000       3.818743001605221E-002 !mtd4
 C          1.5697488562       -0.5259343753        0.1338695801
 C          0.6147376658        0.5876038946       -0.2937232124
 O         -0.6568923774        0.5225408477        0.3116084984
 C         -1.4658687895       -0.5344819857       -0.1374225775
 H          2.5625681411       -0.3204938054       -0.2568282198
 H          1.6197387518       -0.5732634315        1.2187724016
 H          1.2434978491       -1.4913968779       -0.2452174558
 H          0.5081450174        0.5845414820       -1.3900588375
 H          1.0168049894        1.5560126667        0.0153370253
 H         -2.4492390362       -0.3747824905        0.3013376051
 H         -1.0862182109       -1.5105042604        0.1844408035
 H         -1.5514555355       -0.5304858449       -1.2316571731
  12
  -14.5545622100000       3.818743001605221E-002 !mtd1
 C          1.5699690841       -0.5283690296       -0.1105510393
 C          0.6121340331        0.5924041567        0.2908065687
 O         -0.6541994163        0.5189877803       -0.3246177689
 C         -1.4660901494       -0.5334018186        0.1299827033
 H          1.6292937299       -0.5931954229       -1.1941917963
 H          2.5595430477       -0.3174446195        0.2853633666
 H          1.2395353154       -1.4873875308        0.2811663107
 H          1.0176773769        1.5555666464       -0.0298724859
 H          0.4958122538        0.6066377483        1.3860941072
 H         -1.5577911832       -0.5190333074        1.2236086325
 H         -1.0850289061       -1.5125927805       -0.1804918796
 H         -2.4469071133       -0.3775847254       -0.3157598754
  12
  -14.5544640500000       3.441986947500077E-002 !gc
 C          1.8531473558       -0.0725682995       -0.2570081028
 C          0.5395483234        0.1690899047        0.4680653637
 O         -0.5238569065       -0.1462426223       -0.4032490727
 C         -1.7855150904        0.0445447419        0.1751666826
 H          2.6880299193        0.1638406609        0.3967138381
 H          1.9193699782       -1.1129349562       -0.5625287968
 H          1.9041352407        0.5512485834       -1.1448944981
 H          0.4642078770        1.2225940894        0.7839547967
 H          0.4800689061       -0.4580228302        1.3727911268
 H         -1.9196745272       -0.5904183475        1.0609631954
 H         -2.5204486938       -0.2271305005       -0.5798085886
 H         -1.9356707050        1.0912105571        0.4714074266
  12
  -14.5544640400000       3.441950524761452E-002 !mtd14
 C          1.8531308872       -0.0724485835       -0.2570053600
 C          0.5395568081        0.1689123228        0.4681043566
 O         -0.5238499502       -0.1462376055       -0.4033462064
 C         -1.7855221967        0.0445822863        0.1752284113
 H          2.6880541730        0.1649285505        0.3963865281
 H          1.9200991032       -1.1129326417       -0.5619627530
 H          1.9035089037        0.5509314649       -1.1452156916
 H          0.4640060458        1.2222874515        0.7844028273
 H          0.4800989610       -0.4585521852        1.3725756375
 H         -1.9352414202        1.0911584489        0.4721806092
 H         -1.9198941734       -0.5910660665        1.0604876657
 H         -2.5205441942       -0.2262052349       -0.5799473936
  12
  -14.5544640200000       3.441877680446934E-002 !mtd13
 C          1.8532010240       -0.0725985579       -0.2569571044
 C          0.5395152417        0.1689657108        0.4680411557
 O         -0.5238303885       -0.1457391893       -0.4034602591
 C         -1.7855674296        0.0442397505        0.1753267842
 H          1.9187391237       -1.1125723214       -0.5637516524
 H          1.9049747740        0.5522837513       -1.1440095639
 H          2.6881333219        0.1623326000        0.3972773799
 H          0.4644514363        1.2223473431        0.7844390836
 H          0.4797686703       -0.4585298356        1.3724833549
 H         -1.9363358033        1.0906674461        0.4719977323
 H         -1.9192630058       -0.5910896585        1.0608993298
 H         -2.5204930745       -0.2275684372       -0.5796119584
  12
  -14.5544640100000       3.441841258871031E-002 !mtd12
 C          1.8532082427       -0.0727912144       -0.2569381308
 C          0.5395651220        0.1691447227        0.4680626681
 O         -0.5238423088       -0.1454222398       -0.4035397908
 C         -1.7855671587        0.0439537677        0.1753792791
 H          1.9048717818        0.5518359524       -1.1442276740
 H          2.6882556432        0.1622278442        0.3971156116
 H          1.9186628309       -1.1129031974       -0.5634172576
 H          0.4645139780        1.2225473597        0.7843031410
 H          0.4796042030       -0.4582126882        1.3725795166
 H         -1.9363780695        1.0901205645        0.4730354607
 H         -1.9195263526       -0.5922894143        1.0603496927
 H         -2.5205230188       -0.2269161711       -0.5798603386
  12
  -14.5544640100000       3.441841258871031E-002 !mtd7
 C          1.8532063930       -0.0724173986       -0.2569423532
 C          0.5394911095        0.1686324539        0.4680661710
 O         -0.5239180758       -0.1457406560       -0.4035986145
 C         -1.7854791992        0.0443701813        0.1753930525
 H          1.9198376630       -1.1126345911       -0.5630566902
 H          1.9043394030        0.5520639748       -1.1443019008
 H          2.6880335598        0.1637829810        0.3970505693
 H          0.4641186607        1.2217754588        0.7851502726
 H          0.4799766996       -0.4595292605        1.3720838643
 H         -1.9189956206       -0.5907955876        1.0611483446
 H         -2.5207351480       -0.2275141521       -0.5792418272
 H         -1.9360356586        1.0910035473        0.4718237257
  12
  -14.5544640000000       3.441804837674068E-002 !mtd14
 C          1.8531905260       -0.0727499270       -0.2569178269
 C          0.5395672044        0.1690310683        0.4680815347
 O         -0.5238668904       -0.1452369123       -0.4036684420
 C         -1.7855500488        0.0438750322        0.1754577318
 H          1.9183708456       -1.1127178488       -0.5639361535
 H          1.9051609890        0.5523193397       -1.1438469244
 H          2.6882003606        0.1617642128        0.3973878144
 H          0.4645714581        1.2223361695        0.7846661614
 H          0.4795103146       -0.4586750977        1.3723429706
 H         -2.5205515611       -0.2278160213       -0.5794639684
 H         -1.9366504140        1.0901470234        0.4726780885
 H         -1.9187583735       -0.5920887481        1.0606906726
  12
  -14.5544639700000       3.441695576408534E-002 !mtd8
 C          1.8530811196       -0.0728839982       -0.2569784625
 C          0.5395955919        0.1694705158        0.4680281424
 O         -0.5238046929       -0.1458696089       -0.4032271386
 C         -1.7855387090        0.0441290053        0.1751721559
 H          2.6880627343        0.1661839555        0.3957278927
 H          1.9202429799       -1.1141070568       -0.5595218956
 H          1.9028893146        0.5486006120       -1.1465352373
 H          0.4647350645        1.2231744445        0.7833487155
 H          0.4799549241       -0.4571046563        1.3730442195
 H         -2.5202277684       -0.2272519924       -0.5802629996
 H         -1.9361188686        1.0905888300        0.4719509346
 H         -1.9198417283       -0.5914373717        1.0605238058
  12
  -14.5544639200000       3.441513481998486E-002 !mtd8
 C          1.8531436172       -0.0723564402       -0.2570694953
 C          0.5395564282        0.1689930873        0.4681157351
 O         -0.5238114281       -0.1468944916       -0.4030666778
 C         -1.7855550313        0.0449877873        0.1750517225
 H          1.9018055886        0.5484220530       -1.1471622890
 H          2.6881383773        0.1682250672        0.3950441710
 H          1.9214533439       -1.1136254748       -0.5589268792
 H          0.4639750795        1.2226692170        0.7833627073
 H          0.4801702624       -0.4575595652        1.3732256441
 H         -1.9207823188       -0.5904420220        1.0602689888
 H         -2.5205196966       -0.2252493465       -0.5803890088
 H         -1.9345206266        1.0916444536        0.4717811291
  12
  -14.5544639000000       3.441440646933398E-002 !mtd2
 C          1.8531941807       -0.0719668945       -0.2571512515
 C          0.5395413070        0.1687734621        0.4680750888
 O         -0.5238521225       -0.1480023171       -0.4026856603
 C         -1.7855599729        0.0458450408        0.1747757290
 H          1.9029062741        0.5504641996       -1.1459482094
 H          2.6878617516        0.1669967734        0.3957843327
 H          1.9212039334       -1.1126411506       -0.5607949219
 H          0.4630951286        1.2223309095        0.7832207346
 H          0.4806579620       -0.4576425131        1.3732548010
 H         -2.5204944692       -0.2283908726       -0.5793337213
 H         -1.9350012025        1.0938816118        0.4666570360
 H         -1.9202268562       -0.5855696461        1.0630637709
  12
  -14.5516584400000       1.767828521543450E-003 !mtd3
 C          1.5887441025       -0.5123460381       -0.1204068881
 C          0.6135400635        0.5849527707        0.3041489909
 O         -0.6400689732        0.4976147693       -0.3342155923
 C         -1.4986020714       -0.5204311411        0.1364227887
 H          1.2220895549       -1.4943877512        0.1701314506
 H          1.7139313077       -0.4959817896       -1.1999055404
 H          2.5536747704       -0.3482734338        0.3514612618
 H          1.0075094655        1.5611556994        0.0092792665
 H          0.4895379887        0.5752424861        1.3972375862
 H         -1.0102747530       -1.1651230549        0.8690389510
 H         -1.8233559329       -1.1303830085       -0.7097420723
 H         -2.3783392165       -0.0647243615        0.6024767094
  12
  -14.5511930300000       1.080320231959442E-003 !mtd7
 C          1.5933695135       -0.5136659761        0.1363954076
 C          0.6045808344        0.5756973427       -0.3120583343
 O         -0.6476737783        0.5044807130        0.3341260302
 C         -1.4851416827       -0.5158989189       -0.1448618232
 H          2.4224486843       -0.0818326549        0.6888319193
 H          1.0893215031       -1.2178149636        0.7938490379
 H          1.9925054998       -1.0612382848       -0.7130904056
 H          0.4555906139        0.5319354191       -1.4011256541
 H          0.9892049732        1.5666651329       -0.0603043177
 H         -1.6794182139       -0.3947209394       -1.2186436991
 H         -2.4210356720       -0.4292633157        0.4036996774
 H         -1.0618855990       -1.5131802873        0.0225159183
