  12
        -14.55456226
 C          1.5703916985       -0.5281114847       -0.1107074576
 C          0.6119917602        0.5921007870        0.2910202980
 O         -0.6540610767        0.5187116665       -0.3248470963
 C         -1.4665052073       -0.5331192226        0.1301344926
 H          1.2403278401       -1.4875548285        0.2802969560
 H          1.6300010881       -0.5922145285       -1.1943225718
 H          2.5597281702       -0.3169656222        0.2856743414
 H          1.0174339422        1.5556122612       -0.0287668245
 H          0.4954035751        0.6054849713        1.3862493950
 H         -1.5606581673       -0.5164104387        1.2234564459
 H         -1.0843240151       -1.5127263296       -0.1773806277
 H         -2.4463685172       -0.3786980174       -0.3181422109
