! r2scan-3c def2/J RI DEFGRID2 scfconv6 printgap
%output
    printlevel normal
end
* xyz 0 1
C -2.7590257159 0.5651905132 1.070669607
O -1.3592533782 0.8312380104 0.8066916615
C -0.7598382866 0.0593200128 -0.082984503
C 0.7071518978 0.4760113992 -0.2447009753
Cl 1.4997972307 0.3440131095 1.3281611582
Cl 1.5022521161 -0.560464501 -1.4411482697
F -0.8530015986 -1.2750091217 0.2280517199
F -1.376110674 0.1204058399 -1.3175954389
H -3.3389080055 0.6935477004 0.1572189882
H -3.0342696386 1.3048579614 1.8144236948
H -2.8794697429 -0.4446365774 1.4615956565
H 0.7561978104 1.5139356425 -0.5809445323
*
