  14
        -19.32297882
 C          2.3942620938        0.0286588985       -0.0000174042
 C          0.8974008262        0.0294043819        0.0000277880
 C          0.1757825004        1.2223327972        0.0000151353
 C         -1.2057757687        1.1686620719       -0.0000009050
 C         -1.8267443645       -0.0718776425       -0.0000191892
 C         -1.0224460352       -1.1992420843       -0.0000091077
 N          0.2985167832       -1.1531148055        0.0000275197
 H          2.7564720878       -0.9948909604        0.0017274968
 H          2.7727336486        0.5425470835       -0.8821979990
 H          2.7728944489        0.5457710898        0.8801907291
 H          0.6951592307        2.1691912147        0.0000123867
 H         -1.7911645562        2.0774298476       -0.0000113279
 H         -2.9021057481       -0.1590933712       -0.0000402454
 H         -1.4510506490       -2.1935407240       -0.0000195911
  14
        -19.32261878
 C          2.3949484611        0.0223986942       -0.0016120990
 C          0.8983736043        0.0352585582        0.0019011795
 C          0.1744327326        1.2246326584        0.0008733372
 C         -1.2087093868        1.1682062815       -0.0000928859
 C         -1.8275203304       -0.0717193479       -0.0006331431
 C         -1.0197616630       -1.1982792313       -0.0003418737
 N          0.2990231922       -1.1496642807        0.0012321735
 H          2.7548931490       -0.4283588979       -0.9246811740
 H          2.7968962784        1.0280737751        0.0852688931
 H          2.7589385979       -0.5873614369        0.8224053889
 H          0.6876564651        2.1747433973        0.0012784210
 H         -1.7945283830        2.0766994192       -0.0001446897
 H         -2.9026270897       -0.1615077307       -0.0010516012
 H         -1.4467975823       -2.1933235007       -0.0013249695
