  16
  -19.8785875900000       0.499654611073225      !mtd9
 C         -1.4799648790        0.0013227360       -0.2437229346
 C         -0.7338554355       -1.2423653917        0.2354885932
 C          0.7228143227       -1.1673722783       -0.2244119897
 O          1.3631869449       -0.0011536617        0.2400202874
 C          0.7248762637        1.1661233068       -0.2245305267
 C         -0.7315608847        1.2435805894        0.2355862905
 H         -2.5032948454        0.0022138307        0.1360945791
 H         -1.5242234621        0.0011735239       -1.3361264866
 H         -0.7588369138       -1.2847640098        1.3259994910
 H         -1.1948217325       -2.1491269374       -0.1583964003
 H          1.3036199055       -2.0023421488        0.1734308849
 H          0.7619183033       -1.1994689885       -1.3258248400
 H          1.3071040179        2.0001723038        0.1732567919
 H          0.7641777416        1.1981163507       -1.3259463159
 H         -0.7561335772        1.2858146454        1.3261121786
 H         -1.1909681687        2.1511642721       -0.1580177640
  16
  -19.8785875900000       0.499654611073225      !mtd11
 C         -1.4815064680        0.0013206002        0.2344480472
 C         -0.7323043223       -1.2423275235       -0.2400818795
 C          0.7214322783       -1.1673778430        0.2290115866
 O          1.3646912580       -0.0012329367       -0.2315432977
 C          0.7234477432        1.1660735541        0.2289515048
 C         -0.7301467902        1.2436507563       -0.2400500089
 H         -1.5325613457        0.0013307918        1.3265075409
 H         -2.5023854420        0.0022559843       -0.1518224857
 H         -1.1958430455       -2.1491007938        0.1506685099
 H         -0.7501661401       -1.2846079942       -1.3307110437
 H          0.7535276915       -1.1992835628        1.3306387562
 H          1.3047692093       -2.0025198883       -0.1649064473
 H          0.7557294951        1.1980786523        1.3305574903
 H          1.3081265572        2.0001021313       -0.1652164059
 H         -1.1920706850        2.1512227417        0.1508264740
 H         -0.7479364476        1.2861304154       -1.3307265719
  16
  -19.8708285100000       1.357824442411269E-004 !mtd2
 C         -1.3673270422        0.0319870719        0.4271791056
 C         -0.7781014900       -1.2924297219       -0.0659676400
 C          0.7309098573       -1.1119984320       -0.3259121532
 O          1.2573940422       -0.0256351635        0.3983723354
 C          0.7662920521        1.2141898939       -0.0653546859
 C         -0.7426994849        1.1786473563       -0.3618579158
 H         -1.1317493093        0.1636579324        1.4849052264
 H         -2.4520579138        0.0294855230        0.3150817200
 H         -0.9451276258       -2.0679025987        0.6818475879
 H         -1.2699390281       -1.6016734114       -0.9896370885
 H          1.2956109822       -1.9867353831        0.0021732640
 H          0.9179331554       -0.9631421344       -1.4003791142
 H          0.9904554743        1.9225896080        0.7356358085
 H          1.3221295941        1.5198086014       -0.9666090168
 H         -1.1948222753        2.1320321644       -0.0888192557
 H         -0.9168330544        1.0157539494       -1.4275852069
  16
  -19.8708285100000       1.357824442411269E-004 !mtd5
 C         -1.3753867908        0.0230123485       -0.4009557413
 C         -0.7764602351       -1.2908105182        0.1086449996
 C          0.7370755448       -1.1045420766        0.3359921956
 O          1.2494809563       -0.0345155291       -0.4219468411
 C          0.7671831561        1.2153396656        0.0236295604
 C         -0.7355405820        1.1861730396        0.3508282491
 H         -2.4576787034        0.0231203429       -0.2675536759
 H         -1.1607040111        0.1320514827       -1.4656693315
 H         -1.2504284311       -1.5809546122        1.0477004750
 H         -0.9570705572       -2.0817855899       -0.6195092097
 H          0.9440670693       -0.9317826844        1.4031777919
 H          1.2958383902       -1.9864966687        0.0170891128
 H          1.3405086137        1.5406280349        0.9068884519
 H          0.9752121082        1.9059028265       -0.7970948325
 H         -0.8882039174        1.0458480591        1.4230692855
 H         -1.1932463951        2.1337241432        0.0669784240
  16
  -19.8708285000000       1.357810074057895E-004 !md6
 C         -1.3753134515       -0.0204594410       -0.4009843521
 C         -0.7376524469       -1.1849939107        0.3506179262
 C          0.7650601737       -1.2167108478        0.0239595624
 O          1.2494997774        0.0322368262       -0.4220074012
 C          0.7390417680        1.1033797232        0.3357350612
 C         -0.7742597707        1.2921636154        0.1089374655
 H         -2.4575624840       -0.0186497421       -0.2675866890
 H         -1.1608245159       -0.1298954899       -1.4656182074
 H         -0.8903610903       -1.0449087933        1.4228271476
 H         -1.1970594866       -2.1316171133        0.0660010252
 H          1.3378183063       -1.5428050186        0.9073101391
 H          0.9721670688       -1.9077313720       -0.7966372768
 H          0.9463421464        0.9307797257        1.4029184218
 H          1.2990668823        1.9841638414        0.0159422691
 H         -1.2476854648        1.5825506859        1.0482012914
 H         -0.9539676888        2.0836230320       -0.6188265875
  16
  -19.8708284900000       1.357795705861674E-004 !gc
 C         -1.3673524706       -0.0295255060        0.4269557433
 C         -0.7444573034       -1.1770156889       -0.3622060576
 C          0.7641897093       -1.2157865108       -0.0648607531
 O          1.2575239534        0.0233729982        0.3982242603
 C          0.7324907847        1.1103216495       -0.3262334041
 C         -0.7759316121        1.2941092474       -0.0654239210
 H         -1.1321386351       -0.1621084886        1.4846907460
 H         -2.4520412624       -0.0250855989        0.3148855386
 H         -1.1985554281       -2.1297425652       -0.0902929975
 H         -0.9175242166       -1.0130017414       -1.4280146131
 H          0.9862577502       -1.9240316917        0.7369141178
 H          1.3200360395       -1.5233019832       -0.9654860382
 H          1.2990468707        1.9842483450        0.0008699859
 H          0.9184574812        0.9605948609       -1.4007707546
 H         -0.9407979356        2.0694502347        0.6830338672
 H         -1.2675966647        1.6052294703       -0.9885920965
  16
  -19.8702526800000       7.382619353784388E-005 !md3
 C         -1.5444994273        0.0013175679       -0.0273142494
 C         -0.6742528329       -1.2061927939        0.3494738583
 C          0.6661729175       -1.1254555270       -0.3732113274
 O          1.4289032079       -0.0012848850        0.0254136523
 C          0.6545908716        1.1243872011        0.3965661780
 C         -0.6592742887        1.2073324361       -0.3731314631
 H         -2.2036679163        0.2472996171        0.8067875915
 H         -2.1738727530       -0.2435201386       -0.8844400971
 H         -0.4864198883       -1.2171550529        1.4246205839
 H         -1.1734849368       -2.1390801146        0.0873885160
 H          1.2864598115       -1.9982777377       -0.1498084760
 H          0.4956985005       -1.0951170167       -1.4607435922
 H          0.4459770395        1.0947787355        1.4773342797
 H          1.2839920772        1.9959264955        0.1947546731
 H         -1.1658367542        2.1411216901       -0.1292198647
 H         -0.4335708238        1.2178686465       -1.4409819373
  16
  -19.8702526800000       7.382619353784388E-005 !md7
 C         -1.5444841936        0.0013755079       -0.0273763590
 C         -0.6614660069       -1.2061849692       -0.3730627005
 C          0.6525707471       -1.1255463044        0.3966120054
 O          1.4289348957       -0.0012839414        0.0252680134
 C          0.6681959335        1.1244416800       -0.3731616642
 C         -0.6721153952        1.2073257421        0.3494657996
 H         -2.2039662640       -0.2435623607        0.8067707502
 H         -2.1734632536        0.2472525666       -0.8844993131
 H         -1.1697746168       -2.1390096549       -0.1289162499
 H         -0.4358462351       -1.2171348249       -1.4408335366
 H          0.4439675585       -1.0953968550        1.4774452407
 H          1.2803905446       -1.9981895525        0.1948804077
 H          1.2901517645        1.9960727738       -0.1494358216
 H          0.4978551449        1.0943979132       -1.4607009673
 H         -0.4843213702        1.2179688843        1.4246347228
 H         -1.1697910720        2.1411598818        0.0875371204
