  16
        -19.87858759
 C         -1.4799648790        0.0013227360       -0.2437229346
 C         -0.7338554355       -1.2423653917        0.2354885932
 C          0.7228143227       -1.1673722783       -0.2244119897
 O          1.3631869449       -0.0011536617        0.2400202874
 C          0.7248762637        1.1661233068       -0.2245305267
 C         -0.7315608847        1.2435805894        0.2355862905
 H         -2.5032948454        0.0022138307        0.1360945791
 H         -1.5242234621        0.0011735239       -1.3361264866
 H         -0.7588369138       -1.2847640098        1.3259994910
 H         -1.1948217325       -2.1491269374       -0.1583964003
 H          1.3036199055       -2.0023421488        0.1734308849
 H          0.7619183033       -1.1994689885       -1.3258248400
 H          1.3071040179        2.0001723038        0.1732567919
 H          0.7641777416        1.1981163507       -1.3259463159
 H         -0.7561335772        1.2858146454        1.3261121786
 H         -1.1909681687        2.1511642721       -0.1580177640
