! r2scan-3c def2/J RI DEFGRID2 scfconv6 printgap
%output
    printlevel normal
end
* xyz 0 1
C -1.5556941736 1.1189504192 0.5124281385
C -1.1471367591 -0.2809234574 0.0591779392
C -2.3156234308 -0.9196310201 -0.6960180422
C 0.0896947335 -0.2873647703 -0.8510616466
C 1.4779003007 -0.0697120041 -0.2216588707
C 1.7660829979 1.3794194594 0.1685833642
C 1.7319470687 -0.9980510333 0.9645075007
H -0.8245015631 1.5513437166 1.186917142
H -1.666281731 1.7784175877 -0.3456978714
H -2.5090743615 1.0769140069 1.0355971717
H -0.945139686 -0.8926308501 0.9431236923
H -3.2063443102 -0.9431248523 -0.0722702378
H -2.5415782161 -0.3482916931 -1.5941511088
H -2.0778841882 -1.9398005969 -0.9890991449
H -0.0532186674 0.4594069421 -1.6364377425
H 0.1207789197 -1.2647219586 -1.3410910623
H 2.1960584237 -0.3348851498 -1.0086753652
H 1.2378551163 1.6583992232 1.0754159452
H 2.8310302373 1.5065925488 0.3530063773
H 1.4738312265 2.0593186392 -0.6278305764
H 1.5021461403 -2.0281992543 0.7025436483
H 2.7765147779 -0.9442311179 1.2629626424
H 1.1236809597 -0.711523448 1.8188612695
*
