  23
        -30.28119982
 C         -3.2985820658        1.3073623396        0.1944690775
 C         -2.0153772965        0.6839078208       -0.3400914219
 C         -1.9142413410       -0.7953398736        0.0247939525
 C         -0.6392571372       -1.4346997167       -0.5322134071
 C          0.5802436848       -0.8393862599        0.1338596844
 O          0.7883313787       -0.8407849111        1.3185371404
 O          1.4111939515       -0.3102343701       -0.7709534547
 C          2.5996233046        0.3137074672       -0.2815027959
 C          2.3295635786        1.7398611354        0.1764870422
 H         -3.3370137593        1.2270348647        1.2784266508
 H         -3.3543795016        2.3595593089       -0.0742783090
 H         -4.1691050254        0.8010876135       -0.2173130185
 H         -1.9824883995        0.7920120012       -1.4269747982
 H         -1.1552663276        1.2156956380        0.0724058466
 H         -2.7824974280       -1.3276481052       -0.3691495738
 H         -1.9123282273       -0.9028771482        1.1111329092
 H         -0.5645864756       -1.2847935384       -1.6091195225
 H         -0.6459735351       -2.5050665263       -0.3171206094
 H          2.9954130621       -0.2810893928        0.5483145482
 H          3.2972978170        0.2941592796       -1.1211767849
 H          1.8818915229        2.3155191719       -0.6303136483
 H          1.6519945066        1.7334174106        1.0267934681
 H          3.2620601290        2.2104082049        0.4745085446
