  33
        -50.84817444
 C         -4.8123804180       -1.0311265337        0.6439832775
 C         -3.6620524750       -0.2237858299        0.1163969082
 C         -3.9199632963        0.9341916844       -0.6076913275
 C         -2.8884562570        1.6910370966       -1.1311355285
 C         -1.5786226310        1.3008226422       -0.9364083550
 C         -1.2992627912        0.1585473489       -0.1916729672
 C         -2.3422124720       -0.6138144098        0.3401627629
 C         -1.9951841285       -1.8434220799        1.1279735749
 N          0.0109764387       -0.2879999625       -0.0116053456
 C          1.1347313952        0.4539799918        0.1468488736
 C          1.0807280359        1.8020491121        0.5413287612
 C          2.2268284179        2.5380753536        0.7161388481
 C          3.4800028415        1.9640426113        0.5119361924
 C          3.5633863034        0.6379251470        0.1623592990
 C          2.4132505863       -0.1401013720       -0.0179232948
 C          2.5504546348       -1.5504466402       -0.3616448743
 O          1.6387343455       -2.3577316448       -0.4485287996
 O          3.8166896889       -1.9437321926       -0.5866095757
 H         -5.7557300483       -0.6091611332        0.3068432357
 H         -4.7528558725       -2.0615373138        0.2973673778
 H         -4.8142667351       -1.0380553044        1.7338279791
 H         -4.9430571893        1.2394746534       -0.7720181069
 H         -3.1052704772        2.5784324003       -1.7070111755
 H         -0.7696140203        1.8600881244       -1.3811304712
 H         -2.8290405424       -2.1756641626        1.7369787461
 H         -1.7166350037       -2.6582075965        0.4579785819
 H         -1.1477381180       -1.6456508077        1.7824850404
 H          0.1747106876       -1.2854940434       -0.1288228609
 H          0.1170190928        2.2471282199        0.7344403964
 H          2.1536398644        3.5707884900        1.0248396344
 H          4.3749392976        2.5516013633        0.6445430463
 H          4.5247741742        0.1683561658        0.0263023326
 H          3.8193246546       -2.8887183522       -0.8032032429
