  33
        -50.84817444
 C         -4.8123804180       -1.0311265337        0.6439832775
 C         -3.6620524750       -0.2237858299        0.1163969082
 C         -3.9199632963        0.9341916844       -0.6076913275
 C         -2.8884562570        1.6910370966       -1.1311355285
 C         -1.5786226310        1.3008226422       -0.9364083550
 C         -1.2992627912        0.1585473489       -0.1916729672
 C         -2.3422124720       -0.6138144098        0.3401627629
 C         -1.9951841285       -1.8434220799        1.1279735749
 N          0.0109764387       -0.2879999625       -0.0116053456
 C          1.1347313952        0.4539799918        0.1468488736
 C          1.0807280359        1.8020491121        0.5413287612
 C          2.2268284179        2.5380753536        0.7161388481
 C          3.4800028415        1.9640426113        0.5119361924
 C          3.5633863034        0.6379251470        0.1623592990
 C          2.4132505863       -0.1401013720       -0.0179232948
 C          2.5504546348       -1.5504466402       -0.3616448743
 O          1.6387343455       -2.3577316448       -0.4485287996
 O          3.8166896889       -1.9437321926       -0.5866095757
 H         -5.7557300483       -0.6091611332        0.3068432357
 H         -4.7528558725       -2.0615373138        0.2973673778
 H         -4.8142667351       -1.0380553044        1.7338279791
 H         -4.9430571893        1.2394746534       -0.7720181069
 H         -3.1052704772        2.5784324003       -1.7070111755
 H         -0.7696140203        1.8600881244       -1.3811304712
 H         -2.8290405424       -2.1756641626        1.7369787461
 H         -1.7166350037       -2.6582075965        0.4579785819
 H         -1.1477381180       -1.6456508077        1.7824850404
 H          0.1747106876       -1.2854940434       -0.1288228609
 H          0.1170190928        2.2471282199        0.7344403964
 H          2.1536398644        3.5707884900        1.0248396344
 H          4.3749392976        2.5516013633        0.6445430463
 H          4.5247741742        0.1683561658        0.0263023326
 H          3.8193246546       -2.8887183522       -0.8032032429
  33
        -50.84718662
 C         -4.7910611553       -0.9469687198       -0.8479108466
 C         -3.6539354817       -0.1940229794       -0.2216783252
 C         -3.9209512812        0.9648127994        0.4959304475
 C         -2.8990009531        1.6848962886        1.0859503730
 C         -1.5927937805        1.2636458329        0.9451670677
 C         -1.3012722105        0.1198800495        0.2048726594
 C         -2.3369826929       -0.6365865927       -0.3620524453
 C         -2.0291708047       -1.8807503924       -1.1447272315
 N          0.0191733723       -0.3129861276        0.0659088521
 C          1.1323275207        0.4411362276       -0.0994432445
 C          1.0651994456        1.7859206610       -0.5042639733
 C          2.2037464813        2.5328649199       -0.6799725056
 C          3.4627734051        1.9747958226       -0.4657501545
 C          3.5596145489        0.6521124764       -0.1078180620
 C          2.4174032815       -0.1380669592        0.0721048285
 C          2.5699156398       -1.5457633522        0.4166306273
 O          1.6659033464       -2.3627165278        0.5057639526
 O          3.8398246515       -1.9280390809        0.6376407408
 H         -4.6213618198       -1.0886103771       -1.9139710862
 H         -4.9039736852       -1.9295011279       -0.3897880929
 H         -5.7230607992       -0.4033980112       -0.7158897404
 H         -4.9420359335        1.3021097939        0.5983718209
 H         -3.1202577181        2.5724955771        1.6597187698
 H         -0.7895761242        1.8044178132        1.4223582695
 H         -1.8682396173       -1.6313282674       -2.1943676651
 H         -1.1325598700       -2.3757588477       -0.7810353426
 H         -2.8505210599       -2.5890512403       -1.0879919960
 H          0.2032461204       -1.3047521350        0.2001511533
 H          0.0974498308        2.2195807248       -0.7031135896
 H          2.1204219726        3.5624314615       -0.9965870479
 H          4.3513842077        2.5720026136       -0.5977706395
 H          4.5255386125        0.1939781099        0.0348861143
 H          3.8510975354       -2.8731763328        0.8533785351
  33
        -50.84661656
 C         -4.2671839098        0.2021370306        1.7133820901
 C         -3.4355120570        0.2258673634        0.4661859115
 C         -4.0166426059        0.5801373820       -0.7431703841
 C         -3.2772313164        0.5831489175       -1.9123954772
 C         -1.9344200940        0.2693365508       -1.8716045351
 C         -1.3266489109       -0.0571193860       -0.6623921209
 C         -2.0821808758       -0.1214173051        0.5138241305
 C         -1.4726656681       -0.5915000581        1.8006702512
 N          0.0431023306       -0.3687536095       -0.6776178145
 C          1.0173987260        0.2470674636        0.0332097266
 C          0.7438346629        1.3881867433        0.8078052038
 C          1.7282860517        1.9981926340        1.5447920519
 C          3.0313517426        1.5041112220        1.5388071983
 C          3.3336672251        0.4118652574        0.7619205601
 C          2.3528165007       -0.2295970294       -0.0041692469
 C          2.7218138367       -1.3615248488       -0.8450882134
 O          1.9789835070       -1.9554203725       -1.6095940931
 O          4.0096050190       -1.7359411618       -0.7347823848
 H         -3.7976686162        0.7861826160        2.5032996682
 H         -5.2565779946        0.6087035750        1.5204445101
 H         -4.3830938285       -0.8184653827        2.0783943316
 H         -5.0638199610        0.8442554103       -0.7709678084
 H         -3.7454951852        0.8408070649       -2.8504643815
 H         -1.3367525584        0.2810558065       -2.7710440477
 H         -0.5142405683       -1.0717358573        1.6249728206
 H         -1.3151100416        0.2380405819        2.4903774708
 H         -2.1330970238       -1.3073565123        2.2865939556
 H          0.3671556324       -1.0470875756       -1.3617425654
 H         -0.2564906666        1.7924113570        0.7923703019
 H          1.4905505088        2.8760487079        2.1281406317
 H          3.7976033031        1.9858423897        2.1257848134
 H          4.3417574263        0.0303097477        0.7241443700
 H          4.1709627899       -2.4847408126       -1.3289942593
  33
        -50.84517698
 C         -4.4884597835       -0.2862988213        1.4828557991
 C         -3.5227277616        0.0724512028        0.3949996594
 C         -3.9446610131        0.8265617207       -0.6907035635
 C         -3.0694090686        1.1670108366       -1.7064209648
 C         -1.7532333645        0.7536477073       -1.6416377717
 C         -1.3148985353       -0.0006148510       -0.5601879093
 C         -2.1923383446       -0.3514229721        0.4670719279
 C         -1.7163140892       -1.1652062574        1.6311386697
 N          0.0364381038       -0.4253612570       -0.5246446931
 C          1.0472361514        0.2751120593        0.0304557277
 C          0.8017747338        1.4969783650        0.6827902974
 C          1.8238066949        2.2108234662        1.2560908747
 C          3.1357469694        1.7408750981        1.2077673451
 C          3.4024843034        0.5494702210        0.5783210607
 C          2.3818895271       -0.2030219899       -0.0164175244
 C          2.6995966720       -1.4611590266       -0.6756360869
 O          1.8991060908       -2.2025885089       -1.2240807554
 O          4.0051481739       -1.7887412093       -0.6479400128
 H         -5.4639323187        0.1529132637        1.2913426217
 H         -4.6041869958       -1.3676751785        1.5506261825
 H         -4.1304299258        0.0685756555        2.4483876167
 H         -4.9738584183        1.1518451115       -0.7410560790
 H         -3.4129795569        1.7542933196       -2.5446907561
 H         -1.0513560453        1.0110675961       -2.4207441579
 H         -1.7818282538       -0.5861022629        2.5520560180
 H         -2.3335028028       -2.0541273857        1.7527124212
 H         -0.6841299811       -1.4735338175        1.4918736777
 H          0.2975274897       -1.2794373091       -1.0094108707
 H         -0.2130610291        1.8640951417        0.7193734041
 H          1.6082547926        3.1476800889        1.7493231758
 H          3.9326676793        2.3097479703        1.6607357667
 H          4.4108664812        0.1695666547        0.5306348795
 H          4.1256996574       -2.6341337352       -1.1067130158
  33
        -50.84284697
 C         -4.8335556684       -0.9588670391        0.6653898117
 C         -3.6645233221       -0.1909871154        0.1214588728
 C         -3.8920829712        0.9438393012       -0.6471404511
 C         -2.8393242187        1.6629680445       -1.1820640715
 C         -1.5402805963        1.2534366126       -0.9591423493
 C         -1.2912834586        0.1312214099       -0.1738401523
 C         -2.3548280297       -0.5971667176        0.3769237847
 C         -2.0542627806       -1.8015921765        1.2220539077
 N          0.0116073762       -0.3329878264        0.0272038728
 C          1.1430333480        0.4120756922        0.1698689517
 C          1.0590239037        1.7525423931        0.5818543225
 C          2.1817809013        2.5265608822        0.7490772862
 C          3.4469744139        1.9950423014        0.5160759238
 C          3.5568327421        0.6778762566        0.1424985746
 C          2.4306574939       -0.1390723606       -0.0284371973
 C          2.7258524707       -1.5198157948       -0.4209763968
 O          3.8267075524       -1.9263915904       -0.7121195011
 O          1.6715505870       -2.3815941760       -0.4399036072
 H         -4.7745839374       -2.0079133713        0.3801344514
 H         -4.8606459341       -0.9040552818        1.7537048460
 H         -5.7652341331       -0.5496973477        0.2833390177
 H         -4.9070729238        1.2615820925       -0.8355594226
 H         -3.0314570782        2.5345727082       -1.7896765405
 H         -0.7142661222        1.7830296378       -1.4089306045
 H         -1.1476458793       -1.6421066562        1.8028909617
 H         -2.8670064228       -2.0113620336        1.9101132973
 H         -1.9071525739       -2.6827930214        0.5951465152
 H          0.1424444953       -1.3302063900       -0.0575189871
 H          0.0841990436        2.1648023366        0.7927021696
 H          2.0777132610        3.5518142894        1.0728357380
 H          4.3277499617        2.6048601663        0.6410104119
 H          4.5232465817        0.2278656517       -0.0274480154
 H          1.9982043627       -3.2535140194       -0.7125428106
  33
        -50.84177692
 C         -4.1275015636        1.0986540124       -1.6369515290
 C         -3.3860380159        0.4904440417       -0.4846929164
 C         -4.0554732496        0.2242981501        0.7015901823
 C         -3.4006087142       -0.3603846399        1.7705651252
 C         -2.0542852697       -0.6454367465        1.6728306509
 C         -1.3584594637       -0.3557200523        0.5021943945
 C         -2.0290537477        0.1770140351       -0.6048776561
 C         -1.3240545768        0.3781978964       -1.9126521512
 N          0.0099034523       -0.6702787865        0.4513626367
 C          1.0227604536        0.1979982531        0.1791865614
 C          0.7579531156        1.5733935165        0.0682349344
 C          1.7488926959        2.4749121558       -0.2356793665
 C          3.0565521263        2.0442693553       -0.4399851103
 C          3.3455734088        0.7078759409       -0.3073310479
 C          2.3582774446       -0.2348374705        0.0097587972
 C          2.8353075611       -1.6149548469        0.1295633838
 O          3.9609491978       -1.9738531217       -0.1285422815
 O          1.9292159570       -2.5276170630        0.5744521719
 H         -5.1301775137        1.3896353679       -1.3347280909
 H         -3.6065851976        1.9781900641       -2.0115985824
 H         -4.2122655568        0.3869090019       -2.4582581492
 H         -5.1048718760        0.4668009672        0.7842475228
 H         -3.9365482785       -0.5812356903        2.6813679723
 H         -1.5229677283       -1.0853475440        2.5043313584
 H         -0.3850713061       -0.1675736558       -1.9368781974
 H         -1.9486683822        0.0273047164       -2.7318490099
 H         -1.1063548167        1.4322399959       -2.0864474051
 H          0.2756421335       -1.5750930732        0.8102446656
 H         -0.2481578114        1.9165429384        0.2543942494
 H          1.5093717039        3.5260006568       -0.3062987225
 H          3.8333152960        2.7515152726       -0.6843131461
 H          4.3524829844        0.3417734839       -0.4393721463
 H          2.3650782173       -3.3934152774        0.6142785582
