  21
        -24.05838342
 C          2.4688696418       -0.3228082034        0.8388573267
 C          1.2601840843        0.2563307431        0.1005696304
 H          1.1353100261        1.3056559205        0.3844024666
 C         -0.0101045659       -0.5353287931        0.4394829175
 C         -1.2721656640        0.0297444367       -0.2232867800
 C         -2.3912660262       -1.0094662468       -0.1954187597
 C         -1.7359933067        1.3112454636        0.4643334262
 O          1.4870794184        0.2954440503       -1.2925449570
 H          2.3338054131       -0.2359310683        1.9132337561
 H          2.5983153567       -1.3749158257        0.5876395796
 H          3.3695976731        0.2152851339        0.5534992158
 H          0.1352271860       -1.5675899795        0.1051676570
 H         -0.1396893109       -0.5521247165        1.5230345273
 H         -1.0310496932        0.2616105417       -1.2663237383
 H         -3.2882411696       -0.6154726231       -0.6675508462
 H         -2.6338861293       -1.2762691300        0.8315148029
 H         -2.0971797665       -1.9136177842       -0.7244766941
 H         -1.9651231432        1.1193718850        1.5110594117
 H         -0.9706627188        2.0807000392        0.4126659402
 H         -2.6325063298        1.6940023367       -0.0180762357
 H          1.6061806580       -0.6096631897       -1.6039496434
