! r2scan-3c def2/J RI DEFGRID2 scfconv6 printgap
%output
    printlevel normal
end
* xyz 0 1
C -1.1150334261 -0.0518637212 0.7134633767
C 0.2383975873 0.5754850169 0.3436524769
C 1.1131713349 -0.3979858203 -0.4698402517
O 1.695368882 -1.3987094521 0.3313977472
O -0.0565246541 1.7421301907 -0.3981363486
O -1.8408094489 -0.4618798144 -0.4189090449
H -1.6885424568 0.6825715892 1.2929551538
H -0.9642126997 -0.9416272982 1.326140491
H 0.7670356914 0.8289191069 1.2745179093
H 1.9509205298 0.1494918187 -0.9100423974
H 0.5136944564 -0.8332088744 -1.2777839751
H 1.0161478727 -2.0316735176 0.5993978736
H 0.7590465884 2.2150551162 -0.6093346453
H -1.9668073218 0.3137289178 -0.9850336395
*
