  10
  -11.5462293500000       0.333338036425845      !md1
 C         -1.6248186348       -0.4983923924       -0.0000017034
 C         -0.6178463184        0.6522303989       -0.0000623060
 C          0.7445012122        0.1578169703        0.0001662435
 C          1.8599011148       -0.2747829321       -0.0000605458
 H         -2.6406554549       -0.1089715441       -0.0004714391
 H         -1.4902294560       -1.1204275598        0.8822464216
 H         -1.4896368947       -1.1210271099       -0.8817378111
 H         -0.7660909280        1.2773248038        0.8857440591
 H         -0.7659373358        1.2771260109       -0.8860390555
 H          2.8417775754       -0.6434234779       -0.0002389687
  10
  -11.5462293400000       0.333334509078310      !md2
 C         -1.6247270936       -0.4984587821       -0.0000138702
 C         -0.6178840950        0.6522646758       -0.0000456903
 C          0.7445258346        0.1580180463        0.0000941602
 C          1.8598288226       -0.2749342109       -0.0000390379
 H         -1.4903734768       -1.1201952674        0.8825102460
 H         -1.4893057539       -1.1214627732       -0.8814553534
 H         -2.6406174954       -0.1090873615       -0.0008419014
 H         -0.7662958306        1.2773248755        0.8858103868
 H         -0.7660337969        1.2771436605       -0.8860413614
 H          2.8417812283       -0.6433327547        0.0000708733
  10
  -11.5462293200000       0.333327454495845      !mtd2
 C         -1.6245601569       -0.4985786559       -0.0000167608
 C         -0.6179275370        0.6523432413       -0.0000232792
 C          0.7445549651        0.1583086879        0.0000386896
 C          1.8596333551       -0.2751562537       -0.0000123541
 H         -1.4902627297       -1.1202023145       -0.8825954894
 H         -2.6405222535       -0.1094400982        0.0011989539
 H         -1.4887074520       -1.1215520574        0.8813706887
 H         -0.7662782633        1.2772739122        0.8858799529
 H         -0.7662534028        1.2773323460       -0.8858899879
 H          2.8416895224       -0.6433466261        0.0001991962
