! wb97x-v def2-tzvp def2/J RIJCOSX DEFGRID2 scfconv7 GCP(DFT/TZ) printgap
%output
    printlevel normal
end
%cpcm
    smd true
    smdsolvent "water"
end
* xyz 0 1
C 1.892566567421017 -1.1685052659725204 -0.46670145829668885
C 1.192461665726232 -0.028672263459766176 0.2565054212153333
C 2.0649039602889805 1.2132739587902608 0.35442167516560413
O -0.013345339005957876 0.3217085603822632 -0.4675062616135301
C -1.2404400112936904 0.1334245868892745 0.2702193340120151
C -2.3196223225441472 0.877384925840573 -0.49468631095281
C -1.5739782352081724 -1.3448285575032255 0.42640986240564754
H 2.810542171284807 -1.4493237667072358 0.06025132415558114
H 1.2452520664764892 -2.04877144236226 -0.5276286140164976
H 2.1609181016844126 -0.8630785335885633 -1.4842662325854765
H 0.914497468135319 -0.3541527138159975 1.2677917504073979
H 2.985216967371721 0.9936380076208422 0.9055489038258833
H 1.535164700671378 2.018224669598305 0.87391290694611
H 2.339259649207491 1.5644859272628802 -0.6465988804603624
H -1.119787537116972 0.5888139340561291 1.2661150115917652
H -3.276717961538065 0.795383710862806 0.02885383656680933
H -2.0678794863658494 1.9377464823532222 -0.5920156250840627
H -2.439030132038479 0.4515307488909466 -1.4970771316038274
H -0.7943050280275269 -1.879197408629936 0.97769104491417
H -1.6911375150687986 -1.8116599958887591 -0.5581408327294662
H -2.5130990994703386 -1.460144095685974 0.9782304444936796
*
