! r2scan-3c def2/J RI DEFGRID2 scfconv6 printgap
%output
    printlevel normal
end
* xyz 0 1
C 2.0885795469 -1.068716901 -0.4654438201
C 0.8700241128 -0.4464238681 0.2152827941
C 1.194264618 0.9736708088 0.671929302
C -0.3318002031 -0.4696910595 -0.7373321644
C -1.6831852314 -0.2655951654 -0.0531104305
O -1.8626887411 1.0924745264 0.3029130998
H 2.9481777473 -1.040840738 0.1998060152
H 2.336706913 -0.5179752209 -1.3701529249
H 1.8952566512 -2.1046374096 -0.7344328063
H 0.6209952174 -1.0491834229 1.0965355948
H 0.3140279857 1.4482011821 1.0949655364
H 1.5287603658 1.5713073607 -0.1734810043
H 1.9830389697 0.9628720093 1.4206952324
H -0.3662586458 -1.4382126066 -1.2395261538
H -0.2100018497 0.3057188509 -1.4954002833
H -2.4783890562 -0.5707179468 -0.7475271561
H -1.7415142884 -0.9012469754 0.8416341383
H -2.7393311992 1.2076999379 0.6918817231
*
