! r2scan-3c def2/J RI DEFGRID2 scfconv6 printgap
%output
    printlevel normal
end
%cpcm
    smd true
    smdsolvent "water"
end
* xyz 0 1
C -2.8505137115 0.1236323023 0.317158652
C -1.6561480334 0.622206401 -0.4963115116
C -0.4083733425 -0.1361134994 -0.1202252664
O -0.2909797666 -1.3427421686 -0.1709832443
O 0.5525130331 0.6803121728 0.2936276596
C 1.8184655688 0.1165312083 0.6769607103
C 2.7462169808 -0.0077990967 -0.5217653731
H -2.7091992254 0.3399464268 1.3730407629
H -3.7594793759 0.6109015054 -0.0215748996
H -2.9573850098 -0.9514547298 0.1958855751
H -1.4820132831 1.6844487504 -0.3326381497
H -1.8415311757 0.4434825795 -1.5567880055
H 2.2168635734 0.8111642958 1.4169910978
H 1.640307671 -0.8630546704 1.1307449519
H 2.331946668 -0.7093367938 -1.2424487426
H 2.8706243454 0.9596690924 -1.0004127303
H 3.7133889679 -0.3721086956 -0.1914510976
*
