  5
         -8.21035276
 C         -1.2275892659        0.0000035068        0.0000010052
 Cl         0.5495965690       -0.0000001634       -0.0000001235
 H         -1.5677074276        1.0297093279       -0.0488679858
 H         -1.5677080278       -0.5571914234       -0.8673341383
 H         -1.5677024011       -0.4725539462        0.9161944904
