  20
        -27.11726958
 C          3.5595952194        0.8459027544       -0.3513537907
 C          2.6288918215       -0.1691822871        0.3005118262
 C          1.2282686602       -0.1246731951       -0.3052390015
 C          0.2926958932       -1.1393396863        0.3477237172
 C         -1.1046401541       -1.1030776047       -0.2684686740
 C         -1.8505394776        0.1558291700        0.0942962849
 O         -1.7234629184        0.7886201953        1.1067072482
 O         -2.7288361224        0.5003254061       -0.8597808034
 H          3.1714282874        1.8540471425       -0.2241456378
 H          4.5499078445        0.8004777366        0.0957523707
 H          3.6548779624        0.6481553743       -1.4170692198
 H          3.0433945941       -1.1728316203        0.1787832659
 H          2.5624608277        0.0345685650        1.3711559017
 H          0.8137682230        0.8773887801       -0.1774722885
 H          1.2928215354       -0.3262633423       -1.3777321874
 H          0.7078098095       -2.1428322361        0.2357794374
 H          0.2098522386       -0.9199468279        1.4135114511
 H         -1.7007610694       -1.9380088143        0.1101306037
 H         -1.0663311503       -1.1841447275       -1.3553121955
 H         -3.2194327634        1.2955769718       -0.5979111980
