  11
        -10.50082816
 C         -1.2606543542        0.2720974537       -0.0000023678
 C         -0.0000031064       -0.5837301644        0.0000018079
 C          1.2606558635        0.2720908044        0.0000015832
 H         -1.2881116261        0.9089607501        0.8817140064
 H         -1.2884082218        0.9086398110       -0.8819468615
 H         -2.1505326694       -0.3533161995        0.0002557192
 H         -0.0000097556       -1.2286423167        0.8816809747
 H         -0.0000395085       -1.2286768084       -0.8816542278
 H          1.2883436954        0.9086884816       -0.8818593050
 H          2.1505237015       -0.3533350967        0.0000719679
 H          1.2882534168        0.9088966141        0.8817255309
