  11
        -10.50082816
 C         -1.2606543542        0.2720974537       -0.0000023678
 C         -0.0000031064       -0.5837301644        0.0000018079
 C          1.2606558635        0.2720908044        0.0000015832
 H         -1.2881116261        0.9089607501        0.8817140064
 H         -1.2884082218        0.9086398110       -0.8819468615
 H         -2.1505326694       -0.3533161995        0.0002557192
 H         -0.0000097556       -1.2286423167        0.8816809747
 H         -0.0000395085       -1.2286768084       -0.8816542278
 H          1.2883436954        0.9086884816       -0.8818593050
 H          2.1505237015       -0.3533350967        0.0000719679
 H          1.2882534168        0.9088966141        0.8817255309
  11
        -10.49659945
 C         -1.2682014694        0.2699756740       -0.0000021458
 C         -0.0037518436       -0.5818878952        0.0000020256
 C          1.2721317169        0.2725546278        0.0000018283
 H         -2.1548456742       -0.3606003701       -0.0008484827
 H         -1.3002373657        0.9045546620        0.8831860144
 H         -1.2994498287        0.9058744018       -0.8822817309
 H         -0.0169167094       -1.2303493018        0.8779597080
 H         -0.0169377567       -1.2301361965       -0.8781063582
 H          1.8769836484        0.0800142799       -0.8823421415
 H          1.8847796153        0.0684109766        0.8743165728
 H          1.0244980577        1.3312503536        0.0080960625
