! r2scan-3c def2/J RI DEFGRID2 scfconv6 printgap
%output
    printlevel normal
end
%cpcm
    smd true
    smdsolvent "water"
end
* xyz 0 1
C -2.9081045806 0.8443057692 -0.430417006
C -2.3827757293 -0.1974740078 0.5514675942
C -1.16221404 -0.9685699617 0.0332123259
C 0.1856850213 -0.3434202534 0.3885684914
C 1.3638738014 -1.2250074825 -0.038093459
C 2.5832750968 -0.2981581324 0.0068889642
C 2.0286538858 1.1312676758 -0.1489406802
C 0.5111172957 0.9796290473 -0.306474912
H -2.1570089663 1.5977407528 -0.6462814947
H -3.1957473393 0.3694764435 -1.3658827576
H -3.7830631917 1.3416417506 -0.0176574791
H -2.1302181738 0.2861896015 1.4971851184
H -3.1874156324 -0.9079524227 0.7542441453
H -1.1754957917 -1.9741312163 0.4614680345
H -1.2367089158 -1.0757355606 -1.051359427
H 0.2310935607 -0.1939201013 1.4729148773
H 1.4838445709 -2.0967750383 0.603678536
H 1.1939886802 -1.5753639897 -1.0577736821
H 3.1002641726 -0.4003714987 0.9610904777
H 3.2942879784 -0.5426993128 -0.7810350006
H 2.2547961797 1.7205950306 0.740081173
H 2.4661396927 1.644378183 -1.004254097
H -0.0217408201 1.8243359086 0.1264522221
H 0.2471058027 0.9052820608 -1.3627328802
*
