  6
  -10.3218994700000        1.00000000000000      !md2
 C          1.7164420211        0.2921976280       -0.0000003314
 C          0.6666502470       -0.5039688530       -0.0000008451
 Cl        -0.9512970799        0.0812513771       -0.0000000154
 H          2.7110411525       -0.1171571791       -0.0000022437
 H          1.6237677775        1.3640254121        0.0000076171
 H          0.7282073830       -1.5812475267        0.0000091886
