  16
  -25.5153734100000       0.165444233247089      !mtd10
 C          2.4905820081        1.1842277503       -0.0028897797
 C          1.7180183730       -0.1091434918        0.0001706880
 O          2.2661181863       -1.1863558342        0.0026672528
 C          0.2279466970       -0.0055150245        0.0001585607
 C         -0.4680973004        1.2019071707        0.0016092345
 C         -1.8542296251        1.1625775050        0.0014932113
 N         -2.5558093900        0.0429225322       -0.0002312811
 C         -1.8986564134       -1.1042580131       -0.0015714429
 C         -0.5163348882       -1.1856015179       -0.0013458105
 H          3.5554490013        0.9664353847       -0.0042592891
 H          2.2434454894        1.7689776518        0.8808527027
 H          2.2403779962        1.7667877166       -0.8871593006
 H          0.0410646691        2.1520550516        0.0028913821
 H         -2.4349726533        2.0759520132        0.0020788712
 H         -2.5126444140       -1.9950849393       -0.0029147102
 H         -0.0029588599       -2.1346071328       -0.0023089517
  16
  -25.5153733700000       0.165437230505971      !mtd7
 C          2.4700062565       -1.2256516206       -0.0428116765
 C          1.7195827671        0.0798958538        0.0034622527
 O          2.2859801576        1.1469453461        0.0405831527
 C          0.2279884772        0.0016740181        0.0009473457
 C         -0.4961575865        1.1939811150        0.0255409828
 C         -1.8796399944        1.1361649823        0.0228264861
 N         -2.5560904160        0.0004960585       -0.0016089550
 C         -1.8736607596       -1.1306843752       -0.0241769262
 C         -0.4883977673       -1.1935367842       -0.0244431263
 H          3.5384506008       -1.0259277999       -0.0447597645
 H          2.2043386571       -1.7780297257       -0.9417515459
 H          2.2185243859       -1.8313485177        0.8254008946
 H          0.0334878634        2.1338115394        0.0457593020
 H         -2.4785975132        2.0369931622        0.0407651698
 H         -2.4699266914       -2.0337610825       -0.0433214737
 H          0.0045680641       -2.1519846825       -0.0433077825
  16
  -25.5153731100000       0.165391719912687      !mtd10
 C          2.4905943875        1.1842160366       -0.0083211995
 C          1.7179184443       -0.1091589038        0.0008232457
 O          2.2661468266       -1.1862713424        0.0082666919
 C          0.2278652026       -0.0055279618       -0.0002735911
 C         -0.4680408993        1.2018905046        0.0039321055
 C         -1.8542031551        1.1626415402        0.0044111992
 N         -2.5557188425        0.0429595533        0.0000781051
 C         -1.8986236671       -1.1043300661       -0.0044541992
 C         -0.5163691931       -1.1856706375       -0.0045201204
 H          2.2407897995        1.7622000648       -0.8957003039
 H          3.5554728101        0.9663294803       -0.0080424963
 H          2.2431191219        1.7734682616        0.8722402907
 H          0.0410333867        2.1520820683        0.0074023239
 H         -2.4352586929        2.0758016235        0.0084523587
 H         -2.5129581728       -1.9948969963       -0.0085755548
 H         -0.0031045106       -2.1347291904       -0.0079553657
  16
  -25.5153730800000       0.165386469496269      !mtd7
 C          2.4702369661       -1.2261775625        0.0137306031
 C          1.7195865708        0.0799824719       -0.0012598213
 O          2.2858279538        1.1477246039       -0.0138495558
 C          0.2280083491        0.0015291119        0.0003731521
 C         -0.4960896164        1.1941240253       -0.0038499950
 C         -1.8795546275        1.1363287109       -0.0037231301
 N         -2.5561762623        0.0004887443       -0.0002195084
 C         -1.8737672308       -1.1309250467        0.0039974105
 C         -0.4884726243       -1.1938546292        0.0049140231
 H          2.2106310696       -1.8164454528       -0.8626743481
 H          2.2128759025       -1.7945255763        0.9052424259
 H          3.5387126593       -1.0264542768        0.0098601443
 H          0.0333337566        2.1342718178       -0.0071967063
 H         -2.4782973525        2.0374767559       -0.0069995131
 H         -2.4698732263       -2.0342854201        0.0069034994
 H          0.0043737316       -2.1525894696        0.0087550205
  16
  -25.5153728100000       0.165339223246440      !mtd4
 C          2.4907358622        1.1841649932        0.0074077964
 C          1.7179915878       -0.1090738719       -0.0004187621
 O          2.2660537955       -1.1862916713       -0.0067587917
 C          0.2279012875       -0.0055128262       -0.0003336170
 C         -0.4681049695        1.2019001374       -0.0040112398
 C         -1.8542398586        1.1625513046       -0.0032509198
 N         -2.5558285613        0.0429205752        0.0006844966
 C         -1.8986426073       -1.1042893695        0.0036314342
 C         -0.5163356670       -1.1856002902        0.0032655804
 H          2.2315435515        1.7705051733        0.8864712006
 H          2.2526683503        1.7651587098       -0.8813112408
 H          3.5554748278        0.9661808160        0.0200262759
 H          0.0409872278        2.1520949230       -0.0079172877
 H         -2.4350126593        2.0758616879       -0.0059001550
 H         -2.5126613838       -1.9950769579        0.0059845121
 H         -0.0028651493       -2.1345528311        0.0054630585
  16
  -25.5153721100000       0.165216795816504      !gc
 C          2.4697151506       -1.2161877305        0.1579772709
 C          1.7195663634        0.0790900975       -0.0129642363
 O          2.2859054404        1.1378693005       -0.1504270878
 C          0.2280230607        0.0014936457       -0.0031553064
 C         -0.4960490182        1.1915454416       -0.0799226348
 C         -1.8795408698        1.1341570298       -0.0708479948
 N         -2.5560622146        0.0008883437        0.0055308109
 C         -1.8735682350       -1.1283272836        0.0761586630
 C         -0.4883091532       -1.1912569309        0.0768689740
 H          2.1825709606       -1.6961241211        1.0911332769
 H          3.5377102010       -1.0143126701        0.1678653122
 H          2.2399708212       -1.8898269068       -0.6651796366
 H          0.0333207060        2.1295233141       -0.1441123728
 H         -2.4782414465        2.0335279645       -0.1276064950
 H         -2.4697688033       -2.0296432913        0.1359822872
 H          0.0046958463       -2.1481018672        0.1355406573
  16
  -25.5124849800000       7.784327775040388E-003 !md2
 C          2.3797178457        0.5384407872       -1.1063407083
 C          1.7255740599       -0.0793184318        0.1025626534
 O          2.3318997843       -0.5632947343        1.0217229709
 C          0.2282516214       -0.0306821116        0.0516872218
 C         -0.4679850050        1.0472335206        0.5869654772
 C         -1.8519316167        1.0411384260        0.5063096367
 N         -2.5450496035        0.0651707886       -0.0528440731
 C         -1.8811272462       -0.9606221705       -0.5553477938
 C         -0.4986560965       -1.0617218501       -0.5328708695
 H          3.4611087329        0.4556338358       -1.0360136059
 H          2.0932009829        1.5867232433       -1.1730156717
 H          2.0254793295        0.0395466805       -2.0065516698
 H          0.0575465638        1.8634748483        1.0585110192
 H         -2.4358704367        1.8585913597        0.9083616324
 H         -2.4881771879       -1.7387694197       -0.9990015583
 H          0.0019157473       -1.9216417610       -0.9510732137
