! wb97x-v def2-tzvp def2/J RIJCOSX DEFGRID2 scfconv7 GCP(DFT/TZ) printgap
%output
    printlevel normal
end
%cpcm
    smd true
    smdsolvent "water"
end
* xyz 0 1
C 2.605641326402345 -0.8375387348979002 -0.14213754778691828
C 1.9983667068914135 0.5637834676460347 -0.15193343477157073
C 0.56786985487013 0.6225801355372993 0.3973641372153362
C -0.41188332306719216 -0.18714184362343575 -0.4412330975977385
S -2.157628616018719 -0.07269943483464629 0.15649066208413356
H 2.56414212046531 -1.2740295906649295 0.8624963972969177
H 3.6550049119021235 -0.8113739069155484 -0.45275537715735176
H 2.0795315599195527 -1.5143007004975817 -0.8230442194152167
H 2.009411777226091 0.9650564187750275 -1.1735860987548814
H 2.623113909298367 1.2329219151541992 0.45172844918200306
H 0.23591605159041817 1.667681864377177 0.42282037539013806
H 0.552874064714234 0.2550109689761731 1.430809885028919
H -0.37977813358562573 0.12148512241619705 -1.4909977098258085
H -0.18424154071556748 -1.2566409754854313 -0.4019973626708655
H -2.2802312342147175 1.260496615043579 0.01348231477749053
*
