  11
  -14.5427688500000       0.119160528101431      !md2
 C         -2.5269407553        0.0745222882        0.0002284565
 C         -1.1177293169       -0.5079248039       -0.0002282626
 C         -0.0785719157        0.6005105890       -0.0001820149
 Cl         1.5717022592       -0.0802572474        0.0000870230
 H         -3.2627348742       -0.7251369015        0.0000082140
 H         -2.6873136900        0.6896821444        0.8825702803
 H         -2.6875520956        0.6904494993       -0.8816054682
 H         -0.9767923940       -1.1350429747        0.8818663469
 H         -0.9771976173       -1.1342609122       -0.8828985280
 H         -0.1620703162        1.2232744326        0.8907039045
 H         -0.1618074925        1.2226897586       -0.8915390591
  11
  -14.5427688500000       0.119160528101431      !mtd11
 C         -2.5267217480        0.0745603403        0.0000036853
 C         -1.1175847055       -0.5080004021        0.0001107419
 C         -0.0785711345        0.6006138467        0.0001163488
 Cl         1.5715487592       -0.0802878204       -0.0000966842
 H         -2.6869092838        0.6903852550       -0.8819181348
 H         -3.2625814620       -0.7249537111       -0.0005326953
 H         -2.6874375060        0.6897480197        0.8822816132
 H         -0.9768645747       -1.1346241458        0.8826644554
 H         -0.9766810409       -1.1347088935       -0.8823457226
 H         -0.1618451466        1.2229184702        0.8914197537
 H         -0.1620925840        1.2231823884       -0.8909185159
  11
  -14.5427688400000       0.119159267157661      !md4
 C         -2.5268740394        0.0744717221        0.0001697506
 C         -1.1176789494       -0.5078366202       -0.0001582017
 C         -0.0786265855        0.6007066333       -0.0001213572
 Cl         1.5716611285       -0.0803473567        0.0000377266
 H         -2.6871831083        0.6896485897        0.8827240341
 H         -2.6875550237        0.6903696162       -0.8816760782
 H         -3.2626022026       -0.7252234422       -0.0001144604
 H         -0.9766501786       -1.1346788424        0.8821556994
 H         -0.9769569683       -1.1342645666       -0.8827956006
 H         -0.1620346012        1.2230559248        0.8909470414
 H         -0.1617833915        1.2231328598       -0.8912591036
  11
  -14.5426679000000       0.107087557095366      !mtd7
 C         -1.9507986053       -0.1705717416        0.5037311655
 C         -1.1767231646       -0.1636177157       -0.8084378803
 C          0.1096344886        0.6399436708       -0.7140442295
 Cl         1.2675910725       -0.1297259070        0.4081475550
 H         -2.2254647456        0.8421827174        0.7905462438
 H         -2.8585582162       -0.7598322671        0.4042443907
 H         -1.3445441762       -0.6012330091        1.2964284866
 H         -0.9408181927       -1.1878613681       -1.1028415967
 H         -1.7892850577        0.2816790409       -1.5965699648
 H         -0.0771992554        1.6424577476       -0.3287481584
 H          0.6119365569        0.7021018498       -1.6793880805
  11
  -14.5426679000000       0.107087557095366      !mtd11
 C         -1.9505001011       -0.1705825468        0.5037872458
 C         -1.1767632359       -0.1636182019       -0.8085192094
 C          0.1097358051        0.6397505361       -0.7141155847
 Cl         1.2674346456       -0.1296412862        0.4081936366
 H         -1.3441032309       -0.6013695995        1.2963555944
 H         -2.2250043080        0.8422229380        0.7906903584
 H         -2.8583780955       -0.7597845212        0.4043803182
 H         -0.9409159302       -1.1878536865       -1.1029667731
 H         -1.7893869797        0.2817261006       -1.5966166533
 H         -0.0769404385        1.6423924610       -0.3292335803
 H          0.6120111482        0.7016205933       -1.6794076541
  11
  -14.5426678900000       0.107086423906464      !mtd2
 C         -1.9504937647       -0.1710862219       -0.5036915347
 C         -1.1766471633       -0.1627870797        0.8086202543
 C          0.1097328409        0.6405944754        0.7137782573
 Cl         1.2673815585       -0.1300987182       -0.4081236789
 H         -2.8586512387       -0.7597418524       -0.4035657611
 H         -2.2244477502        0.8415587383       -0.7917223787
 H         -1.3444213843       -0.6031856564       -1.2958006157
 H         -1.7892508236        0.2832728770        1.5963270640
 H         -0.9407566352       -1.1867540571        1.1039427342
 H          0.6122163121        0.7030774539        1.6789425578
 H         -0.0769623777        1.6428577618        0.3278891882
  11
  -14.5426678900000       0.107086423906464      !mtd2
 C         -1.9506293654       -0.1708915022       -0.5036673895
 C         -1.1768233447       -0.1630588318        0.8085865681
 C          0.1095622704        0.6402427738        0.7137490431
 Cl         1.2675760199       -0.1299286036       -0.4081037877
 H         -1.3440481682       -0.6017250248       -1.2960427905
 H         -2.8581595341       -0.7606277371       -0.4040704093
 H         -2.2257354328        0.8416393502       -0.7910075258
 H         -1.7895350168        0.2827300667        1.5963478418
 H         -0.9410940921       -1.1871715638        1.1037410382
 H          0.6120507481        0.7027942517        1.6788906673
 H         -0.0768444755        1.6425712818        0.3279161310
  11
  -14.5426678900000       0.107086423906464      !mtd5
 C         -1.9506263736       -0.1707077450        0.5037305426
 C         -1.1766782788       -0.1633825337       -0.8084491644
 C          0.1096153979        0.6401799614       -0.7140549647
 Cl         1.2674918695       -0.1298483444        0.4081462160
 H         -2.8586086604       -0.7596707809        0.4041718796
 H         -1.3443242175       -0.6017995456        1.2961285667
 H         -2.2249245028        0.8419821973        0.7910493748
 H         -0.9407090567       -1.1875907927       -1.1030274081
 H         -1.7893319003        0.2818826515       -1.5966129030
 H         -0.0769242038        1.6425969950       -0.3284322464
 H          0.6120190750        0.7024030006       -1.6792890187
  11
  -14.5426678800000       0.107085290729352      !mtd1
 C         -1.9505136970       -0.1707099692       -0.5036787745
 C         -1.1766596104       -0.1634030416        0.8086006896
 C          0.1095424930        0.6402900593        0.7137615105
 Cl         1.2674855424       -0.1299016126       -0.4081133606
 H         -2.2248487332        0.8420104301       -0.7909613759
 H         -1.3443907463       -0.6020560587       -1.2961988295
 H         -2.8586289389       -0.7595435450       -0.4037959618
 H         -1.7892857383        0.2822311207        1.5965054679
 H         -0.9406748160       -1.1875104117        1.1034692175
 H          0.6118043552        0.7029218854        1.6790089129
 H         -0.0772527136        1.6425828954        0.3279030650
