  11
        -14.54276885
 C         -2.5269407553        0.0745222882        0.0002284565
 C         -1.1177293169       -0.5079248039       -0.0002282626
 C         -0.0785719157        0.6005105890       -0.0001820149
 Cl         1.5717022592       -0.0802572474        0.0000870230
 H         -3.2627348742       -0.7251369015        0.0000082140
 H         -2.6873136900        0.6896821444        0.8825702803
 H         -2.6875520956        0.6904494993       -0.8816054682
 H         -0.9767923940       -1.1350429747        0.8818663469
 H         -0.9771976173       -1.1342609122       -0.8828985280
 H         -0.1620703162        1.2232744326        0.8907039045
 H         -0.1618074925        1.2226897586       -0.8915390591
  11
        -14.54266790
 C         -1.9507986053       -0.1705717416        0.5037311655
 C         -1.1767231646       -0.1636177157       -0.8084378803
 C          0.1096344886        0.6399436708       -0.7140442295
 Cl         1.2675910725       -0.1297259070        0.4081475550
 H         -2.2254647456        0.8421827174        0.7905462438
 H         -2.8585582162       -0.7598322671        0.4042443907
 H         -1.3445441762       -0.6012330091        1.2964284866
 H         -0.9408181927       -1.1878613681       -1.1028415967
 H         -1.7892850577        0.2816790409       -1.5965699648
 H         -0.0771992554        1.6424577476       -0.3287481584
 H          0.6119365569        0.7021018498       -1.6793880805
