! pbe def2-sv(p) def2/J RI DEFGRID1 loosescf d4 GCP(DFT/SV(P)) printgap
%output
    printlevel normal
end
* xyz 0 1
C -2.2238594588 -0.8018689527 0.1267806042
C -1.472333333 0.5213291387 0.2199058928
C -0.2556391794 0.6076391119 -0.7209059963
C 1.0268659991 0.1500258626 -0.0803350336
C 1.9627197289 1.0159401652 0.2780301791
C 1.1913805689 -1.3222329754 0.1460345133
H -1.5913149256 -1.6396144492 0.4038861821
H -2.5799091935 -0.9626845095 -0.8886546348
H -3.0844695448 -0.7908004404 0.7922174713
H -2.1655904299 1.3256153217 -0.0350124989
H -1.1422515663 0.688729064 1.2474079178
H -0.4539660429 0.0097482627 -1.6132606821
H -0.1290854267 1.6450981303 -1.0352649017
H 2.8830752714 0.7016077695 0.7415167514
H 1.8484221945 2.0760928357 0.1250545041
H 0.5674682758 -1.6459149337 0.9780814763
H 0.8929363125 -1.8815315452 -0.7382153695
H 2.2241241198 -1.5621301671 0.3855868502
*
