! r2scan-3c def2/J RI DEFGRID2 scfconv6 printgap
%output
    printlevel normal
end
%cpcm
    smd true
    smdsolvent "water"
end
* xyz 0 1
C 2.0576477177 1.2679714388 0.6744784305
C 1.6365711349 -0.1752611458 0.4208288715
C 0.3822648922 -0.2986057607 -0.4574120541
H 0.5386285033 0.332036951 -1.339862608
C 0.2652916229 -1.7390390241 -0.9581202373
C -0.87468675 0.2328052289 0.2858063687
C -1.4283293248 1.4695361594 -0.4243485949
C -2.0016520286 -0.7849710812 0.4641873036
H 2.2556485256 1.7747522385 -0.2677043172
H 1.2837595848 1.8189247665 1.2029496338
H 2.9639253348 1.2956510433 1.2751074036
H 1.4589593713 -0.6795136202 1.3737641389
H 2.461908106 -0.6925047277 -0.0741840739
H 0.1901787896 -2.4388969911 -0.13006394
H -0.5992099761 -1.8639960948 -1.6030966207
H 1.1522952138 -1.9946693838 -1.5344340434
H -0.5656816677 0.5358050232 1.2919758436
H -1.7683910328 1.2097045949 -1.4248580977
H -0.666596568 2.2409681173 -0.508581669
H -2.2716914467 1.8808018646 0.1265807686
H -2.7991838292 -0.3360739145 1.0531168214
H -1.6565667879 -1.6715180451 0.9881210315
H -2.4201840773 -1.0829933792 -0.493420684
*
