  22
        -25.83922054
 C          2.8073997195       -0.0000204647        0.0024179721
 N          1.3942278516        0.0000441521       -0.3008870230
 C          0.7311301383        1.1825798607        0.2147432885
 C         -0.7311357690        1.1825601874       -0.2146764091
 N         -1.3942446211        0.0000080090        0.3009102886
 C         -0.7311528210       -1.1825922292       -0.2145916677
 C          0.7311755951       -1.1825545975        0.2146562483
 C         -2.8074061742       -0.0000060062       -0.0025576363
 H          3.2657690436       -0.8845315352       -0.4380616050
 H          3.0119024020       -0.0008511023        1.0853904542
 H          3.2655431658        0.8852974340       -0.4366498346
 H          0.7806151392        1.2227062799        1.3179546466
 H          1.2302803088        2.0670490980       -0.1888424355
 H         -1.2303202673        2.0670102068        0.1889032927
 H         -0.7806084910        1.2226910605       -1.3178855470
 H         -1.2302339709       -2.0669860342        0.1892489365
 H         -0.7808480891       -1.2229405446       -1.3177896231
 H          0.7808659262       -1.2228286327        1.3178616169
 H          1.2303027296       -2.0669529191       -0.1891142141
 H         -3.2656910444        0.8849445156        0.4371050822
 H         -3.2657296118       -0.8848941512        0.4371996214
 H         -3.0117415727       -0.0000423252       -1.0855459430
  22
        -25.83779142
 C          2.6601116694       -0.0000718866        0.3845623598
 N          1.3456288415       -0.0000370160       -0.2154005415
 C          0.5906072880        1.1903477732        0.1328660353
 C         -0.7505324738        1.1818777679       -0.6100546993
 N         -1.5494445036        0.0000269567       -0.3500250058
 C         -0.7504108913       -1.1816868534       -0.6102549274
 C          0.5904544996       -1.1902734149        0.1330659064
 C         -2.2066149373       -0.0001752625        0.9394099777
 H          3.2021717905        0.8849468507        0.0537044184
 H          3.2018285665       -0.8855512774        0.0544258388
 H          2.6280924703        0.0003622436        1.4870491432
 H          0.4192858178        1.2571394030        1.2240362457
 H          1.1671435849        2.0674797265       -0.1710378775
 H         -1.3300520488        2.0684516524       -0.3447315603
 H         -0.5485140836        1.2036776321       -1.6849854255
 H         -1.3299758122       -2.0683842042       -0.3454391316
 H         -0.5480510312       -1.2030868878       -1.6851358642
 H          0.4188371525       -1.2567335439        1.2242039228
 H          1.1669483821       -2.0675563735       -0.1704285054
 H         -2.8411501678        0.8833094619        1.0045143768
 H         -1.5260830614        0.0000828424        1.8024895839
 H         -2.8403454228       -0.8842137087        1.0045986916
  22
        -25.83588033
 C          2.3797683307        0.0001163764        0.4941956976
 N          1.3701369546        0.0000101918       -0.5422435593
 C          0.5343884144        1.1910295515       -0.5530052429
 C         -0.5344712909        1.1910030012        0.5531844656
 N         -1.3702199667       -0.0000131490        0.5422127459
 C         -0.5346078466       -1.1911261594        0.5530091640
 C          0.5345997034       -1.1911489605       -0.5528763566
 C         -2.3796132910        0.0001320786       -0.4944713838
 H          1.9856154637       -0.0008725943        1.5199355365
 H          3.0039778113        0.8844852511        0.3678179038
 H          3.0053590556       -0.8830890797        0.3666029005
 H          1.1743892013        2.0701022282       -0.4549175683
 H          0.0467438720        1.2347035421       -1.5324651627
 H         -0.0468744049        1.2345253665        1.5326696873
 H         -1.1744748171        2.0701068942        0.4552130571
 H         -0.0473009037       -1.2350306334        1.5326508518
 H         -1.1746826561       -2.0701381627        0.4546038997
 H          1.1747564935       -2.0700677957       -0.4543231994
 H          0.0472572149       -1.2352521926       -1.5324793321
 H         -3.0048523133       -0.8834258644       -0.3674117135
 H         -1.9852821103       -0.0002288673       -1.5201276083
 H         -3.0042412111        0.8841528422       -0.3677741457
  22
        -25.83132505
 C          2.4586296616        0.0231247643       -0.7130789985
 N          1.0580439082       -0.0167177364       -0.3684225867
 C          0.6169901612        1.2335385258        0.2287302929
 C         -0.7928780343        1.0617129871        0.8333722285
 N         -1.5240169399       -0.0445728580        0.2565344423
 C         -0.8218202784       -1.2881624426        0.5306030708
 C          0.7145803376       -1.1408924269        0.4809361669
 C         -1.8404029905        0.1489530166       -1.1461733250
 H          2.7278374165       -0.8980781285       -1.2285252620
 H          3.1128908519        0.1395454691        0.1669161130
 H          2.6330766842        0.8631379675       -1.3850700259
 H          1.3147627504        1.5744852735        1.0158661537
 H          0.6076047291        1.9900757316       -0.5616507822
 H         -0.7159697844        0.8654843573        1.9068989277
 H         -1.3728687125        1.9771906792        0.7001694816
 H         -1.1192225414       -1.6291159016        1.5291385942
 H         -1.1533629183       -2.0334694726       -0.1926403308
 H          1.1215759670       -1.0101891401        1.5007424164
 H          1.1606574485       -2.0437842680        0.0589818777
 H         -2.5125451017       -0.6490440641       -1.4614885524
 H         -0.9587668897        0.1507023703       -1.7964304213
 H         -2.3634076806        1.0986984328       -1.2528564383
  22
        -25.83033740
 C          2.6790410392       -0.1857241411        0.2452126383
 N          1.4236208063        0.0827588558       -0.4171375554
 C          0.7351999392        1.2130644747        0.1922561210
 C         -0.7351119554        1.2123094130       -0.1942051652
 N         -1.4226174487        0.0825724329        0.4171440741
 C         -0.5522206044       -1.0838170023        0.5291421802
 C          0.5526509427       -1.0828714872       -0.5314133897
 C         -2.6802878691       -0.1850728208       -0.2412859478
 H          2.5613403311       -0.4916164110        1.2974877275
 H          3.2856172681        0.7193580167        0.2189924674
 H          3.2083691662       -0.9708803035       -0.2927475384
 H          0.8101305200        1.1963958655        1.2926202827
 H          1.2135239766        2.1310539681       -0.1646697547
 H         -1.2138401156        2.1304777017        0.1616287028
 H         -0.8104881606        1.1942892271       -1.2945611110
 H         -0.0929563352       -1.0728626209        1.5254970893
 H         -1.1489359311       -1.9940616306        0.4491417922
 H          1.1490589320       -1.9934882555       -0.4532414968
 H          0.0935110714       -1.0698015732       -1.5277908047
 H         -2.5659923050       -0.4913621205       -1.2939008921
 H         -3.2860075256        0.7205504422       -0.2135172931
 H         -3.2085929449       -0.9696296150        0.2984685900
  22
        -25.83001288
 C          2.5329868568       -0.1211824903        0.6540279173
 N          1.4751555649        0.0982718953       -0.3048339537
 C          0.6059047020        1.1930871577        0.1024500139
 C         -0.7333276046        1.0961264917       -0.6239414148
 N         -1.4836331964       -0.1008588921       -0.2585954886
 C         -0.6021166717       -1.1918976215        0.1319929060
 C          0.7140065215       -1.1017160345       -0.6362995442
 C         -2.5120674981        0.1272255653        0.7297555483
 H          2.1680855297       -0.4396293649        1.6448323230
 H          3.0872392324        0.8090246348        0.7785298108
 H          3.2141461434       -0.8795609604        0.2710497234
 H          0.4241290538        1.1863097490        1.1926773223
 H          1.1035943228        2.1365510135       -0.1447942565
 H         -1.3371823852        1.9789014479       -0.4072616454
 H         -0.5467318182        1.0708760634       -1.7027322590
 H         -0.3867927003       -1.1749562606        1.2159907763
 H         -1.1070558077       -2.1375612795       -0.0909234259
 H          1.3243709678       -1.9826697737       -0.4307594373
 H          0.4940771865       -1.0858043203       -1.7089622477
 H         -3.2048908328        0.8818602858        0.3605559500
 H         -2.1175370018        0.4549441491        1.7060805678
 H         -3.0618268093       -0.8019143219        0.8795864384
