! pbe def2-sv(p) def2/J RI DEFGRID1 loosescf d4 GCP(DFT/SV(P)) printgap
%output
    printlevel normal
end
* xyz 0 1
C 4.2293096647 1.6479115561 -0.1418339983
C 3.519176236 0.6090746442 0.7304964118
C 3.3074150576 -0.6692601788 -0.0406297948
O 4.2323101477 -1.433654145 -0.2914967877
N 2.054644411 -1.0102415427 -0.4438545594
C 0.8213013784 -0.3710813596 -0.3037351136
C 0.650023565 1.0038182944 -0.4557550777
C -0.6030984288 1.5713618832 -0.3203284912
C -1.7076374489 0.7801856465 -0.0485950862
C -1.549488148 -0.5960284104 0.0735351659
C -0.2976025648 -1.1676516892 -0.0545451388
Cl -2.9219213021 -1.6077269297 0.3881343415
Cl -3.276205044 1.499636534 0.1173679892
H 4.4254071675 2.5460413095 0.4363454376
H 3.6313018877 1.9123899064 -1.0104025571
H 5.1752788149 1.2437744001 -0.4946553579
H 2.5784267024 0.9925027313 1.118885254
H 4.1740529433 0.3592623343 1.5676881036
H 2.0061835532 -1.9548200849 -0.8127402219
H 1.4831907172 1.6350174455 -0.7098175513
H -0.733015909 2.6343239622 -0.4365102051
H -0.194831856 -2.2358113089 0.0455488076
*
