  16
        -17.08347488
 C          2.5512924103       -0.3230016271       -0.0003951838
 C          1.2827472063        0.5216116659        0.0006792908
 C          0.0246529407       -0.3418346304        0.0002367429
 C         -1.2564482863        0.5032978553       -0.0007458227
 N         -2.4915555280       -0.2602907788        0.0001539192
 H          2.5865745325       -0.9604368104        0.8806461570
 H          2.5866136949       -0.9580907340       -0.8831268740
 H          3.4340358826        0.3121217779        0.0004633853
 H          1.2753795223        1.1660035921        0.8827039922
 H          1.2749447853        1.1675477725       -0.8802121309
 H          0.0285720454       -0.9879576434       -0.8828130914
 H          0.0275980921       -0.9874179138        0.8836904765
 H         -1.2688803772        1.1460015226       -0.8857144389
 H         -1.2688783578        1.1481098164        0.8826821870
 H         -2.5305752070       -0.8611142590       -0.8171788471
 H         -2.5310231928       -0.8584699865        0.8194011502
