! r2scan-3c def2/J RI DEFGRID2 scfconv6 printgap
%output
    printlevel normal
end
%cpcm
    smd true
    smdsolvent "water"
end
* xyz 0 1
C 0.5494761289 1.4235343843 1.0435137333
C 1.8948696055 1.6500984442 1.2125870035
C 2.8445894601 0.8680467475 0.5485912036
C 2.3940655707 -0.1573454455 -0.3072842543
C 1.0232241827 -0.368628824 -0.4717720958
C 0.0921893794 0.4073186669 0.1962332549
C -1.3462800123 0.1648865089 0.001742234
C -1.8629174146 -0.0818338404 -1.2705657002
C -3.2102849938 -0.3113183812 -1.4764057374
C -4.0578906561 -0.2982818955 -0.3850518498
C -3.6014360148 -0.0670654242 0.8980381285
C -2.2491056588 0.1622738293 1.0626909502
F -1.804025674 0.3641846571 2.3299483871
F -5.3846819153 -0.5213732045 -0.5713428654
C 3.3608233388 -0.9976963708 -1.0178015333
O 4.5780214012 -0.8726101969 -0.9120565386
O 2.8276614476 -1.9194637043 -1.800785899
O 4.1382280255 1.1352871274 0.7587819131
H -0.1596300179 2.0487502369 1.5628117861
H 2.251832545 2.4343562084 1.8600801479
H 0.701961295 -1.1700753202 -1.1176879072
H -1.1908238126 -0.0748128679 -2.1128341642
H -3.6053082049 -0.4953581798 -2.4613876
H -4.2696306005 -0.0684542421 1.7427188922
H 3.5075562534 -2.4552157214 -2.2533578701
H 4.6970468903 0.5147423627 0.23827473
*
