! pbe def2-sv(p) def2/J RI DEFGRID1 loosescf d4 GCP(DFT/SV(P)) printgap
%output
    printlevel normal
end
* xyz 0 1
C -1.1779936717 0.2496110024 -0.3788882776
C 0.00134704 0.6507994322 0.5259711415
C 1.0338104346 -0.4864996936 0.638483348
O 1.2054886499 -1.1156441622 -0.6141802417
O 0.5379785766 1.8240404646 -0.0417656986
O -1.7363145025 -0.9953276266 -0.0489682689
H -0.8203747651 0.2680778593 -1.4137806924
H -1.9709353314 0.9920704039 -0.2705687344
H -0.3734372274 0.8564351349 1.5400242944
H 0.6685203252 -1.2088200164 1.380653759
H 1.9802952603 -0.0641073726 0.996154454
H 1.975544465 -1.6985108512 -0.5791788508
H 1.2516968483 2.1615690872 0.5180642993
H -1.1227950586 -1.6843576295 -0.3429083094
*
