! r2scan-3c def2/J RI DEFGRID2 scfconv6 printgap
%output
    printlevel normal
end
* xyz 0 1
C 2.5531212814 -0.3800682509 -0.5564558758
C 1.2792900389 -0.0664987976 0.2322398088
H 1.2458516673 -0.6942935201 1.1304859544
C 0.0338577213 -0.3398467032 -0.6253899879
C -1.2698241655 -0.4837572406 0.1696657117
C -1.7264156837 0.8488219109 0.7584545739
C -2.3644561782 -1.0631975325 -0.7262947441
O 1.3198121368 1.2570693733 0.7373147655
H 2.6052236104 -1.4409329455 -0.7813196424
H 2.5656859866 0.1775635136 -1.4907430924
H 3.4259118707 -0.1032703923 0.0300855743
H -0.0775302548 0.4622690569 -1.3591415101
H 0.2089560673 -1.2690856504 -1.1703796134
H -1.0899295674 -1.1836808311 0.9939610848
H -2.6174239197 0.7084100617 1.3662109441
H -1.9624337069 1.5519726707 -0.0377801054
H -0.9462896771 1.2776393626 1.3812723159
H -2.0766284232 -2.0408931535 -1.1056889496
H -3.2918312458 -1.1707405595 -0.1690212199
H -2.54790726 -0.4050932344 -1.5728935772
H 1.4165254526 1.8665515847 -0.0079860684
*
