! pbe def2-sv(p) def2/J RI DEFGRID1 loosescf d4 GCP(DFT/SV(P)) printgap
%output
    printlevel normal
end
* xyz 0 1
C -2.1784793178 1.0412625493 0.4259229954
C -1.8391158436 -0.3723854938 -0.0296504287
C -0.5465056373 -0.4895593963 -0.8435514837
C 0.7691632233 -0.1384783767 -0.0982212205
C 1.1379869598 1.3376776662 -0.2745212288
C 1.9070360265 -0.9993704535 -0.6662397516
O 0.6559404827 -0.3591031019 1.303566444
H -2.1624260008 1.7319520004 -0.4143062282
H -1.4693148301 1.376997307 1.177655723
H -3.1727209951 1.0603452824 0.8672640813
H -1.7774258463 -1.0163821482 0.8492036168
H -2.6523669531 -0.7476721757 -0.6561036106
H -0.478801688 -1.5226600722 -1.1940519845
H -0.6189291959 0.1505470464 -1.7237019711
H 2.0411462749 1.5510861325 0.2921036671
H 0.3462212562 1.9800388491 0.0936321805
H 1.3160434605 1.5550550346 -1.3232182835
H 2.8429806145 -0.7497486145 -0.1716549317
H 2.0143485231 -0.8206165983 -1.7321593677
H 1.7034442732 -2.0573726138 -0.5109847484
H 0.5920296738 -1.3094029308 1.4650750309
*
