! pbe def2-sv(p) def2/J RI DEFGRID1 loosescf d4 GCP(DFT/SV(P)) printgap
%output
    printlevel normal
end
* xyz 0 1
C 2.4592633056 0.9174810669 -0.1440521936
C 1.1964128827 0.1666441146 0.2678731359
C 1.4147579226 -1.3413395643 0.1739784805
C 0.0177690203 0.595021083 -0.6259697771
C -1.2769918845 0.017046867 -0.1290431559
O -1.9485727384 -0.8028430944 -0.7206732927
O -1.6263150803 0.4963871506 1.054948521
H 3.2940416926 0.6165859223 0.4833483211
H 2.3210513163 1.9905664147 -0.0416719027
H 2.7099471386 0.6972250358 -1.1789153505
H 0.9486634836 0.4278415474 1.30180235
H 0.510762008 -1.8832470714 0.4449597083
H 1.6842548221 -1.6215675612 -0.8419607742
H 2.2150858687 -1.6508608471 0.8411474132
H 0.1793425405 0.2621553266 -1.6510215027
H -0.070796074 1.6817772029 -0.6014419089
H -2.4622586577 0.1154651276 1.3860181402
*
