! r2scan-3c def2/J RI DEFGRID2 scfconv6 printgap
%output
    printlevel normal
end
* xyz 0 1
C 1.8085070268 -0.9864641156 -0.0243149667
C 1.8036905059 0.5239128228 -0.2275277379
C 0.5488845265 1.2138826334 0.3100610229
C -0.7302254361 0.866220694 -0.4407107136
S -1.4902010321 -0.6882537635 0.1956894987
H 1.6540199048 -1.2304596492 1.0249896273
H 2.7615910486 -1.4052023492 -0.3386208701
H 1.021408871 -1.4641653825 -0.6017725968
H 1.9058988404 0.7472342746 -1.2921476989
H 2.6687603186 0.951313972 0.284450109
H 0.6937982339 2.2943409406 0.2349292216
H 0.4211834457 0.9698898599 1.3677713569
H -1.4771692406 1.6452154876 -0.2960607719
H -0.5374989237 0.7287833482 -1.5040579399
H -2.5879319522 -0.617034282 -0.5469663792
*
