! pbe def2-sv(p) def2/J RI DEFGRID1 loosescf d4 GCP(DFT/SV(P)) printgap
%output
    printlevel normal
end
* xyz 0 1
C 3.6424354881 0.6289536196 -0.4664529303
C 2.527783264 -0.0993558839 0.2180998791
C 2.7289381199 -0.8619942166 1.2812833299
C 1.150636617 0.1174016934 -0.3744014643
H 1.2718046855 0.6339384363 -1.3303146171
C 0.3928831386 -1.2015993918 -0.6353106849
C -0.8993769343 -1.331145804 0.1838220965
C -1.7162260183 -0.0880857336 0.0131185524
C -1.0831633487 1.087100813 0.185320301
C 0.3515910758 1.0725410978 0.5494313928
C -3.1150055442 -0.1582204549 -0.3519874772
O -3.8605603088 0.7941702078 -0.5062546967
H 3.4353500376 1.6979376869 -0.4879517375
H 4.5884262866 0.4649507578 0.0416334276
H 3.7338708552 0.2879180169 -1.4968959711
H 1.927849821 -1.3841591246 1.7757745062
H 3.7105038473 -1.0008821439 1.7005810865
H 0.1260428856 -1.2544977946 -1.6919029976
H 1.0409885574 -2.0499624891 -0.4167167532
H -1.4545585363 -2.2137221007 -0.1339875827
H -0.6460469406 -1.4497402532 1.2400132307
H -1.6101517963 2.0202601036 0.0545603837
H 0.7861153508 2.0702458257 0.5139191564
H 0.4434096033 0.6987405614 1.5735126189
H -3.5060871894 -1.1842056194 -0.4908870164
*
