  20
        -23.57012740
 C         -4.9341334585        0.5196337215       -0.2244237876
 C         -3.5401778674        0.5944857481        0.3858654478
 C         -2.5856538366       -0.4092944565       -0.2561312085
 C         -1.1875304162       -0.3357473170        0.3514964736
 C         -0.2331570159       -1.3369358929       -0.2945153951
 C          1.1567344612       -1.2973385734        0.3117321473
 Br         2.0555210431        0.4028542266       -0.0478516954
 H         -5.5974308074        1.2407648112        0.2471668308
 H         -5.3568185864       -0.4740985727       -0.0910107808
 H         -4.8958329074        0.7343649982       -1.2902079931
 H         -3.1411814233        1.6029980453        0.2573449222
 H         -3.6026513650        0.3978607098        1.4587092993
 H         -2.5241918806       -0.2112355721       -1.3288475666
 H         -2.9847024474       -1.4189577335       -0.1286930487
 H         -1.2485713332       -0.5340287561        1.4251114439
 H         -0.7944262762        0.6752900109        0.2216588271
 H         -0.1704582048       -1.1426276231       -1.3680652927
 H         -0.6225248588       -2.3509376282       -0.1616955259
 H          1.1252133969       -1.3955889874        1.3963438633
 H          1.8020946762       -2.0671370796       -0.1097432702
