! r2scan-3c def2/J RI DEFGRID2 scfconv6 printgap
%output
    printlevel normal
end
%cpcm
    smd true
    smdsolvent "water"
end
* xyz 0 1
C -3.1184343503 0.6567355062 0.1329691143
C -1.7264429975 0.1589235352 0.500052188
C -0.7941440771 0.1697852566 -0.7210628782
C 0.5541096657 -0.3612254768 -0.3174450092
O 0.8675087056 -1.5340650584 -0.3240212615
O 1.3541014804 0.6150753498 0.0914459461
C 2.6646483959 0.2926249358 0.5677756683
H -3.0706318659 1.673745188 -0.2472646368
H -3.5609209969 0.0223996835 -0.630677405
H -3.7626224862 0.6441628144 1.0077979478
H -1.7869788047 -0.8592408344 0.8901202243
H -1.3004300608 0.7949525686 1.2782310627
H -0.6820428848 1.1882066778 -1.0901793593
H -1.2042540793 -0.4724441428 -1.4999569555
H 3.3888178302 0.7270238131 -0.1193381967
H 2.7860351043 -0.7901881884 0.6123546734
H 2.7691302851 0.733525073 1.5568363719
*
