! pbe def2-sv(p) def2/J RI DEFGRID1 loosescf d4 GCP(DFT/SV(P)) printgap
%output
    printlevel normal
end
* xyz 0 1
C -2.2727227962 0.9334930604 -0.6852002969
C -2.0959317736 -0.3207565597 0.1623589419
C -0.8105400431 -0.264580261 0.9901435077
C 0.4158942373 -0.3394147415 0.1184627075
O 0.5507324479 -1.0609934959 -0.8469413938
O 1.3686045948 0.4852582169 0.5446109397
C 2.6056495411 0.4948427449 -0.1725924055
H -3.2004969659 0.8824688103 -1.2485376883
H -2.2971165603 1.8206118024 -0.0567163017
H -1.4498532308 1.0319334171 -1.3906892963
H -2.0546474991 -1.1971844912 -0.4869081006
H -2.9457014158 -0.4304792953 0.8363998645
H -0.7716802927 -1.1228598146 1.6645864371
H -0.7580016036 0.6476403662 1.5836996988
H 3.0555825134 -0.4984318393 -0.1536654721
H 3.2339233744 1.2184906092 0.3366839114
H 2.4328603112 0.7858882996 -1.2093777928
*
