  25
        -39.74171990
 C         -5.1853155211       -0.2688637743       -0.5649158099
 C         -3.6737208917       -0.3511175578       -0.7257771234
 C         -2.9794186500       -0.4349483780        0.6316486079
 O         -1.5715517637       -0.6026962439        0.4920426532
 C         -0.8470739662        0.5087000770        0.2892582797
 O         -1.3259128990        1.6175334636        0.2442705337
 C          0.5960781514        0.2224027805        0.1403388348
 C          1.4662150066        1.2926321984       -0.0544718842
 C          2.8200397310        1.0759893142       -0.1998522176
 C          3.3260234222       -0.2206522370       -0.1530771302
 C          2.4581597987       -1.2951153847        0.0411849007
 C          1.1063996411       -1.0744502950        0.1864271189
 O          4.6473141341       -0.4836249797       -0.2911991362
 H         -5.4592894130        0.6131422781        0.0090304194
 H         -5.6642396734       -0.2081550610       -1.5386311565
 H         -5.5647102452       -1.1478026367       -0.0480715302
 H         -3.3070428346        0.5333256460       -1.2498171621
 H         -3.4055840054       -1.2315482300       -1.3138770131
 H         -3.1766643213        0.4745199133        1.2094563783
 H         -3.3194698814       -1.3103721380        1.1899433682
 H          1.0584555811        2.2913636843       -0.0883827034
 H          3.4931624296        1.9097605306       -0.3505731155
 H          2.8710307675       -2.2907417085        0.0739382326
 H          0.4338171320       -1.9036502558        0.3367755682
 H          5.1389137174        0.3374281681       -0.4187178298
  25
        -39.74165547
 C         -3.8007986499       -0.7258386217       -1.6004725627
 C         -3.8455279049        0.2121754581       -0.4007417510
 C         -3.0957501848       -0.3651207516        0.7983007569
 O         -1.7129732722       -0.5566769623        0.5131744133
 C         -0.9161646206        0.5149922498        0.6369515327
 O         -1.3069871004        1.5993726184        1.0009211098
 C          0.4897291211        0.2145800654        0.2887551626
 C          0.8955254547       -1.0467363049       -0.1457920303
 C          2.2152860778       -1.2815029268       -0.4623464851
 C          3.1551300768       -0.2571540609       -0.3495280213
 C          2.7535378968        1.0039896032        0.0838063903
 C          1.4313424818        1.2350807575        0.3989818926
 O          4.4416042314       -0.5323684101       -0.6710057696
 H         -4.2844597021       -1.6711756570       -1.3634360844
 H         -4.3110936026       -0.2795935716       -2.4503365110
 H         -2.7701694598       -0.9280990010       -1.8828174646
 H         -4.8792677044        0.3915291678       -0.1007724440
 H         -3.3961945390        1.1723685869       -0.6603627426
 H         -3.1916010949        0.3063561524        1.6582995265
 H         -3.4742721828       -1.3573905990        1.0540301922
 H          0.1679388260       -1.8379681471       -0.2314440301
 H          2.5478113568       -2.2501373627       -0.7999903889
 H          3.4825684956        1.7988315461        0.1714278865
 H          1.1038067673        2.2066803615        0.7360850451
 H          4.9903766872        0.2528802211       -0.5513952392
  25
        -39.74150320
 C         -5.1918932630       -0.5076867853       -0.2538312675
 C         -3.6825183379       -0.6857748156       -0.3408095465
 C         -2.9738819841        0.0664806035        0.7832600138
 O         -1.5681643109       -0.1649912133        0.7661393142
 C         -0.8422025659        0.5864117341       -0.0777058649
 O         -1.3191845933        1.4411042195       -0.7860277854
 C          0.5985167571        0.2568549103       -0.0297830929
 C          1.1019959857       -0.7456752805        0.7945832188
 C          2.4541989540       -1.0197569636        0.8059242593
 C          3.3241412485       -0.2962313956       -0.0063248176
 C          2.8231415735        0.7085092251       -0.8336271663
 C          1.4735448583        0.9786442159       -0.8422637401
 O          4.6571280577       -0.5345463538       -0.0242044931
 H         -5.6809940605       -1.0445252955       -1.0623236737
 H         -5.5697847999       -0.8896526532        0.6921269458
 H         -5.4554453405        0.5444477679       -0.3303582104
 H         -3.3180169279       -0.3059618067       -1.2968919826
 H         -3.4243881373       -1.7450040798       -0.2739295863
 H         -3.1612148220        1.1416484226        0.6896477010
 H         -3.3114841945       -0.2852317829        1.7610723571
 H          0.4289393123       -1.3061043893        1.4236729610
 H          2.8451234353       -1.7992382690        1.4471029768
 H          3.5119655069        1.2576164077       -1.4552317967
 H          1.0679846553        1.7523597098       -1.4758743637
 H          4.8772580481       -1.2480119425        0.5878061750
  25
        -39.74141908
 C         -3.7837985503        0.0824063398       -1.7802066144
 C         -3.8538106814       -0.2240398873       -0.2894115206
 C         -3.0716135461        0.7955634665        0.5362534226
 O         -1.6856836059        0.7905328532        0.2055111615
 C         -0.9278227123       -0.1484211094        0.7930349144
 O         -1.3559125310       -0.9465867429        1.5928895357
 C          0.4844862537       -0.0848709649        0.3581311726
 C          0.9297648854        0.8449729750       -0.5774458376
 C          2.2563424021        0.8663624042       -0.9562967023
 C          3.1583390880       -0.0411321439       -0.4059832180
 C          2.7155519212       -0.9742997534        0.5310891617
 C          1.3913325963       -0.9925911865        0.9060720944
 O          4.4678261457       -0.0527169045       -0.7510597100
 H         -4.2291224837        1.0524034513       -1.9914931674
 H         -2.7486054546        0.0991127856       -2.1133438267
 H         -4.3177854120       -0.6747647285       -2.3488015939
 H         -3.4441084194       -1.2162955636       -0.0925374931
 H         -4.8909254603       -0.2118267097        0.0496251691
 H         -3.4114475924        1.8119930553        0.3246682608
 H         -3.1830355109        0.5771219779        1.6037063848
 H          0.2323002033        1.5486685492       -1.0034216730
 H          2.6020313327        1.5896394622       -1.6835706375
 H          3.4285126303       -1.6686426362        0.9457672152
 H          1.0306350634       -1.7074161080        1.6296352188
 H          4.6480202264        0.6369370240       -1.4021243907
  25
        -39.74122218
 C         -3.6275533385       -0.3087161831        1.5197167424
 C         -3.8823462783       -0.9086657740        0.1423873312
 C         -3.0914039383       -0.1896406654       -0.9487782783
 O         -1.6918535788       -0.3909445855       -0.7730923352
 C         -0.9535328032        0.6558751236       -0.3760495743
 O         -1.3953890021        1.7679667447       -0.2074020076
 C          0.4674572265        0.2933770715       -0.1788257279
 C          1.3576032424        1.2938376094        0.2045504600
 C          2.6910633184        1.0052595260        0.4036371037
 C          3.1560500184       -0.2948256888        0.2222071145
 C          2.2678551928       -1.2998867178       -0.1602126431
 C          0.9366190938       -1.0073611887       -0.3585659392
 O          4.4560633191       -0.6272105971        0.4057249412
 H         -2.5779207887       -0.4051498701        1.7895641254
 H         -3.8857791085        0.7477643492        1.5284466771
 H         -4.2230463032       -0.8199154328        2.2722422774
 H         -4.9421547119       -0.8341587678       -0.1072205487
 H         -3.6034932058       -1.9642346240        0.1418129167
 H         -3.3402959073       -0.5954272768       -1.9338379603
 H         -3.2982202276        0.8855612238       -0.9289175530
 H          0.9814590522        2.2961622957        0.3413796643
 H          3.3798412800        1.7851912395        0.7007297147
 H          2.6488289426       -2.2997127362       -0.2944833099
 H          0.2487493351       -1.7832078097       -0.6544271090
 H          4.9652499659        0.1503338341        0.6668817200
  25
        -39.74098444
 C         -3.6615785145       -0.8107302272       -1.2210449065
 C         -3.8601192112        0.6334161257       -0.7770921465
 C         -3.0560793607        0.9606235808        0.4798168125
 O         -1.6572847101        0.9071931697        0.2136642206
 C         -0.9595275887       -0.1130905355        0.7364849391
 O         -1.4374508307       -0.9569579927        1.4568350866
 C          0.4646401144       -0.0773893427        0.3368069794
 C          0.9715616636        0.8998719276       -0.5152809392
 C          2.3068323447        0.8917398173       -0.8628692987
 C          3.1561899328       -0.0931572619       -0.3643869842
 C          2.6514820665       -1.0744476339        0.4883526027
 C          1.3187729790       -1.0630443035        0.8323431206
 O          4.4722838046       -0.1355866743       -0.6809149310
 H         -4.2664805411       -1.0244085631       -2.0989073279
 H         -2.6184996000       -0.9934462921       -1.4707643930
 H         -3.9457925336       -1.4959734653       -0.4258846835
 H         -4.9136515830        0.8149915732       -0.5577234554
 H         -3.5550769758        1.3114136225       -1.5766962630
 H         -3.2668436123        1.9802452744        0.8157275754
 H         -3.2896977911        0.2515883419        1.2809300771
 H          0.3148253444        1.6629375639       -0.9017959042
 H          2.7003468675        1.6519643544       -1.5252540857
 H          3.3241057052       -1.8286900219        0.8639373175
 H          0.9106896768       -1.8140593319        1.4910994871
 H          4.6972619447        0.5929867736       -1.2729626702
  25
        -39.74080847
 C         -3.8453687340       -0.9050383049       -1.4714742834
 C         -3.9638577383       -0.9757950752        0.0460640312
 C         -3.1065374875        0.0820524176        0.7295187769
 O         -1.7308384430       -0.2212712673        0.5101175071
 C         -0.8768861365        0.8088258197        0.4473107030
 O         -1.2110685777        1.9628398312        0.5813673864
 C          0.5136038081        0.3716945337        0.1939612486
 C          1.5145952439        1.3394544201        0.1535407761
 C          2.8254876587        0.9806228572       -0.0783714520
 C          3.1558516320       -0.3577387258       -0.2761701257
 C          2.1563338996       -1.3297122249       -0.2382504082
 C          0.8482306767       -0.9672551554       -0.0045075212
 O          4.4285361476       -0.7590996705       -0.5073567154
 H         -4.4462566194       -1.6826850890       -1.9362920748
 H         -4.1875688296        0.0610165769       -1.8357065243
 H         -2.8097812805       -1.0404888236       -1.7739942207
 H         -3.6468780863       -1.9597817333        0.3952965062
 H         -5.0007230630       -0.8220914098        0.3489377722
 H         -3.3163235570        1.0818450923        0.3336396302
 H         -3.2876697713        0.0910162960        1.8107673036
 H          1.2418412197        2.3722085903        0.3081325869
 H          3.6009055313        1.7348332374       -0.1073524180
 H          2.4339554220       -2.3599361769       -0.3945936542
 H          0.0747089091       -1.7178943130        0.0263061356
 H          5.0228813948        0.0016980322       -0.5084867657
  25
        -39.74080569
 C         -5.3207953831       -0.8458975630       -0.1599676317
 C         -3.8266430191       -1.1372908475       -0.1966341864
 C         -3.0129110938        0.1321186884        0.0075745640
 O         -1.6285422442       -0.2042376970       -0.0433605987
 C         -0.7686214947        0.8076232574        0.1409723007
 O         -1.1235398007        1.9455188951        0.3422005170
 C          0.6433689796        0.3748080278        0.0694129536
 C          1.6396028107        1.3333373005        0.2399657134
 C          2.9701999195        0.9773438417        0.1784415698
 C          3.3254808471       -0.3487865960       -0.0555481975
 C          2.3309354788       -1.3117213444       -0.2257244225
 C          1.0027888682       -0.9521291420       -0.1636610129
 O          4.6182124868       -0.7465447288       -0.1255568783
 H         -5.8870593447       -1.7617160335       -0.3074931600
 H         -5.6032387613       -0.4164003485        0.7982974299
 H         -5.5924854546       -0.1425194826       -0.9435319045
 H         -3.5541965271       -1.5778627138       -1.1571650271
 H         -3.5648153557       -1.8518091034        0.5855424134
 H         -3.2293100211        0.8715678765       -0.7725203242
 H         -3.2332139794        0.5935381554        0.9773931813
 H          1.3473404541        2.3565356358        0.4202257202
 H          3.7418608622        1.7243041409        0.3109708222
 H          2.6283352481       -2.3325448813       -0.4053946299
 H          0.2320110236       -1.6945847731       -0.2954221820
 H          5.2064319249        0.0074835861        0.0066910489
  25
        -39.74076599
 C         -3.8596625011        0.6767302897       -1.7178981523
 C         -3.9954280135       -0.5074350597       -0.7683882833
 C         -3.1256050975       -0.3395938313        0.4699608746
 O         -1.7556830319       -0.3883588401        0.0779075420
 C         -0.8647768562        0.1148154964        0.9421360357
 O         -1.1712176263        0.5823826337        2.0140507268
 C          0.5223921641        0.0373847904        0.4344895098
 C          0.8274853747       -0.4936896147       -0.8181475534
 C          2.1334740531       -0.5429293336       -1.2530859186
 C          3.1601538607       -0.0615764067       -0.4410097580
 C          2.8593843005        0.4686811193        0.8111313779
 C          1.5507202107        0.5167724478        1.2425015739
 O          4.4294160378       -0.1293904202       -0.9085987671
 H         -4.4688603688        0.5242812927       -2.6052718275
 H         -4.1814482640        1.5946387005       -1.2308651999
 H         -2.8232292339        0.7940329037       -2.0243128115
 H         -3.7002101888       -1.4251890116       -1.2795017380
 H         -5.0323789583       -0.6128097441       -0.4456623984
 H         -3.3189383770        0.6180035543        0.9665070199
 H         -3.3112533088       -1.1430142356        1.1927080694
 H          0.0327688964       -0.8664380645       -1.4444477874
 H          2.3886079846       -0.9494685496       -2.2187391468
 H          3.6559729572        0.8415723973        1.4415127272
 H          1.3006104723        0.9249135510        2.2098203197
 H          5.0439482050        0.2326900992       -0.2579840274
  25
        -39.74070413
 C         -3.9793722348       -0.4268985852       -1.8064199580
 C         -3.9871203494        0.6581264430       -0.7365995405
 C         -3.1146623028        0.2841363769        0.4530447648
 O         -1.7539251479        0.2535241887        0.0280976938
 C         -0.8472833920       -0.0287153315        0.9725259669
 O         -1.1410905203       -0.2470249159        2.1248176182
 C          0.5355461449       -0.0403777695        0.4482469874
 C          0.8227468310        0.1950649530       -0.8956862896
 C          2.1253650277        0.1725740904       -1.3426972854
 C          3.1666383423       -0.0849458540       -0.4513024744
 C          2.8837585561       -0.3196520052        0.8919704553
 C          1.5783178351       -0.2977255983        1.3350935749
 O          4.4320617350       -0.0968047855       -0.9337765118
 H         -4.3824249635       -1.3560902370       -1.4098592127
 H         -4.5826090835       -0.1244570307       -2.6587687547
 H         -2.9633833049       -0.6092643671       -2.1464408180
 H         -5.0039060389        0.8226955298       -0.3768230715
 H         -3.6169775216        1.5937827063       -1.1585905804
 H         -3.2145680041        1.0135193068        1.2652989137
 H         -3.3853454072       -0.7016118432        0.8489725592
 H          0.0167913889        0.3955746431       -1.5833135254
 H          2.3666882176        0.3514153947       -2.3783517615
 H          3.6917298388       -0.5187843826        1.5836666459
 H          1.3419944088       -0.4781621208        2.3725885645
 H          5.0578844498       -0.2848712642       -0.2232005422
  25
        -39.74059481
 C         -3.9759309919       -1.9040707116       -0.4040756360
 C         -3.9650386486       -0.3999595224       -0.6473555817
 C         -3.1294486697        0.3361361108        0.3938631271
 O         -1.7587481893       -0.0329147779        0.2566027292
 C         -0.8414445085        0.9408391392        0.3286595323
 O         -1.1100480247        2.1036024486        0.5216394047
 C          0.5348937099        0.4291835323        0.1472733721
 C          1.5942070887        1.3255800177        0.2682823950
 C          2.8950216531        0.8971262660        0.1093477374
 C          3.1569497205       -0.4403445588       -0.1769897297
 C          2.0991522070       -1.3406844337       -0.3018739997
 C          0.8012987830       -0.9089331264       -0.1398936484
 O          4.4170065447       -0.9084841048       -0.3418344374
 H         -4.5504966020       -2.4103253727       -1.1757321493
 H         -2.9608987413       -2.2917473595       -0.4152094143
 H         -4.4205880305       -2.1300035415        0.5625662503
 H         -4.9822491541       -0.0067006712       -0.6072325857
 H         -3.5566169833       -0.1896573579       -1.6375641558
 H         -3.2131133614        1.4217291903        0.2741767173
 H         -3.4498704788        0.0647383121        1.4060647208
 H          1.3744552985        2.3587165438        0.4897889597
 H          3.7155037383        1.5959685987        0.2061795699
 H          2.3240904233       -2.3712748151       -0.5257330444
 H         -0.0169536673       -1.6044160225       -0.2357726274
 H          5.0554926428       -0.1928722199       -0.2310666541
  25
        -39.74056130
 C         -5.3252507808       -0.8219623834       -0.1475015169
 C         -3.8330539380       -1.1220009250       -0.1939861827
 C         -3.0116684939        0.1420249034        0.0127451208
 O         -1.6289116852       -0.2003288199       -0.0429635315
 C         -0.7651558067        0.8104800909        0.1364847884
 O         -1.1176731453        1.9492757572        0.3345744154
 C          0.6455293585        0.3738216690        0.0646589024
 C          1.6479125553        1.3290587887        0.2360783882
 C          2.9755483306        0.9705341547        0.1777625050
 C          3.3254746445       -0.3593126108       -0.0547726777
 C          2.3279544857       -1.3161141170       -0.2265331296
 C          0.9981619736       -0.9527948998       -0.1673321279
 O          4.6414221212       -0.6751896892       -0.1056396046
 H         -5.8980518541       -1.7335885307       -0.2958166794
 H         -5.5994394538       -0.3950091320        0.8142891933
 H         -5.5970455485       -0.1133438297       -0.9262843539
 H         -3.5685776308       -1.5590058250       -1.1583904283
 H         -3.5712803887       -1.8421866681        0.5830670378
 H         -3.2266392443        0.8858406004       -0.7635188703
 H         -3.2269905223        0.6004414303        0.9851024073
 H          1.3579772593        2.3530076339        0.4149937485
 H          3.7618106626        1.6966049821        0.3081507007
 H          2.6018196737       -2.3476189375       -0.4069246879
 H          0.2258267458       -1.6936552363       -0.3002407676
 H          4.7521711421       -1.6197956911       -0.2712854889
  25
        -39.74052787
 C         -3.8012258572        0.6571237023       -1.6784135773
 C         -3.9793901070       -0.5340157142       -0.7447622578
 C         -3.1250186395       -0.4002056181        0.5093242195
 O         -1.7495325951       -0.4703924311        0.1409487106
 C         -0.8729529984        0.1727528132        0.9248039427
 O         -1.1900080268        0.7776493629        1.9217495499
 C          0.5150237056        0.0615273216        0.4254457322
 C          0.8265299905       -0.6185621277       -0.7486636106
 C          2.1346643611       -0.6917801320       -1.1812969269
 C          3.1518013214       -0.0871933588       -0.4466422095
 C          2.8434330613        0.5938660666        0.7306370524
 C          1.5370565834        0.6654259821        1.1583089577
 O          4.4475622094       -0.1355708810       -0.8374495537
 H         -4.3995020302        0.5290235997       -2.5770518885
 H         -4.1088199766        1.5768621672       -1.1857968332
 H         -2.7575753634        0.7537052781       -1.9676169314
 H         -3.6982560310       -1.4529148584       -1.2619086119
 H         -5.0232797802       -0.6183061487       -0.4389855068
 H         -3.3075227507        0.5538432309        1.0162108502
 H         -3.3362281562       -1.2127801617        1.2144345742
 H          0.0398323248       -1.0875136840       -1.3180461589
 H          2.3760990888       -1.2198760236       -2.0947515159
 H          3.6443589281        1.0548866953        1.2859010139
 H          1.2793758738        1.1887514653        2.0662066436
 H          4.5301062466       -0.6333463575       -1.6604888622
  25
        -39.74049657
 C         -3.8970067379       -0.5356728493       -1.6886628791
 C         -3.9717672417        0.6717515661       -0.7619441706
 C         -3.1045492030        0.4868964968        0.4758440265
 O         -1.7355145878        0.4673108771        0.0778725523
 C         -0.8647472771       -0.0655143300        0.9462549699
 O         -1.1890304428       -0.5050123931        2.0243395846
 C          0.5226565695       -0.0565618683        0.4336251025
 C          0.8428714056        0.4412930542       -0.8263879889
 C          2.1509781881        0.4279409567       -1.2651950237
 C          3.1592725088       -0.0824168852       -0.4510763186
 C          2.8420206153       -0.5816105394        0.8118903541
 C          1.5357694342       -0.5671970660        1.2455860763
 O          4.4548459175       -0.1130429369       -0.8443834827
 H         -4.2628250347       -1.4268855080       -1.1835599486
 H         -4.4997512538       -0.3703866865       -2.5781814485
 H         -2.8682663516       -0.7103303243       -1.9937504048
 H         -5.0009482040        0.8322242059       -0.4372004462
 H         -3.6362619176        1.5646468511       -1.2920027771
 H         -3.2505901072        1.3105851429        1.1847020511
 H         -3.3382505077       -0.4520844284        0.9901252025
 H          0.0631180604        0.8378190092       -1.4571334968
 H          2.3993435601        0.8147331925       -2.2451419975
 H          3.6361401929       -0.9721354349        1.4277179887
 H          1.2711883968       -0.9493595508        2.2194935625
 H          4.5439087702        0.2587371561       -1.7308444806
  25
        -39.74045740
 C         -3.9590233427       -1.7656123143        0.5547765228
 C         -4.0082097610       -0.7156615508       -0.5486258136
 C         -3.1177636808        0.4773960243       -0.2319339075
 O         -1.7579935229        0.0485926835       -0.2529066187
 C         -0.8437602423        0.9698818669        0.0810873032
 O         -1.1315816615        2.1040129609        0.3839529037
 C          0.5372266657        0.4427911079        0.0359733281
 C          1.5894748539        1.3030225106        0.3507661548
 C          2.8917104651        0.8579582995        0.3222451953
 C          3.1653380815       -0.4651257536       -0.0233756970
 C          2.1178122720       -1.3275545090       -0.3378945457
 C          0.8139331150       -0.8772557032       -0.3090145022
 O          4.4582510033       -0.8678540567       -0.0406701447
 H         -4.5692705794       -2.6252351072        0.2892974292
 H         -2.9359492151       -2.0991267823        0.7077074738
 H         -4.3307521374       -1.3533205306        1.4901372760
 H         -5.0299384076       -0.3554925280       -0.6781587739
 H         -3.6776365756       -1.1555290838       -1.4909884840
 H         -3.2467912146        1.2768077082       -0.9710043953
 H         -3.3448453115        0.8916028882        0.7571629546
 H          1.3584534994        2.3232787412        0.6158132031
 H          3.7157154492        1.5105745443        0.5620103969
 H          2.3324693720       -2.3541184269       -0.6056476831
 H          0.0036529871       -1.5453424346       -0.5542624220
 H          4.5152610832       -1.7977903577       -0.2935587108
  25
        -39.74035257
 C         -4.0049621403       -1.8857894714        0.1639659231
 C         -4.0026283088       -0.5878031703       -0.6343137364
 C         -3.1220657089        0.4723153638        0.0122661522
 O         -1.7634148765        0.0446244809       -0.0575913731
 C         -0.8330830938        0.9725974855        0.2057362948
 O         -1.1024147367        2.1146346892        0.4954259914
 C          0.5435211370        0.4432061430        0.0951739849
 C          1.6114239677        1.3136660639        0.3148541756
 C          2.9103836937        0.8681256635        0.2206001407
 C          3.1649976156       -0.4661009943       -0.0954004789
 C          2.1019274819       -1.3390887943       -0.3138265157
 C          0.8013632134       -0.8879676854       -0.2201576049
 O          4.4552732790       -0.8690021615       -0.1795033033
 H         -4.6063704834       -2.6397009287       -0.3378508855
 H         -2.9907890025       -2.2619306706        0.2679657205
 H         -4.4152743392       -1.7213271446        1.1577424574
 H         -5.0165956410       -0.1915540233       -0.7080315188
 H         -3.6346783001       -0.7772716907       -1.6441120648
 H         -3.2150333741        1.4362846158       -0.5008026527
 H         -3.3921792667        0.6197861719        1.0645623621
 H          1.3950387599        2.3424006504        0.5586602250
 H          3.7462389365        1.5287336114        0.3858492402
 H          2.3017135332       -2.3744562521       -0.5581216509
 H         -0.0208213342       -1.5644902475       -0.3911147019
 H          4.4984588865       -1.8071299102       -0.4031540575
