  25
        -39.74171990
 C         -5.1853155211       -0.2688637743       -0.5649158099
 C         -3.6737208917       -0.3511175578       -0.7257771234
 C         -2.9794186500       -0.4349483780        0.6316486079
 O         -1.5715517637       -0.6026962439        0.4920426532
 C         -0.8470739662        0.5087000770        0.2892582797
 O         -1.3259128990        1.6175334636        0.2442705337
 C          0.5960781514        0.2224027805        0.1403388348
 C          1.4662150066        1.2926321984       -0.0544718842
 C          2.8200397310        1.0759893142       -0.1998522176
 C          3.3260234222       -0.2206522370       -0.1530771302
 C          2.4581597987       -1.2951153847        0.0411849007
 C          1.1063996411       -1.0744502950        0.1864271189
 O          4.6473141341       -0.4836249797       -0.2911991362
 H         -5.4592894130        0.6131422781        0.0090304194
 H         -5.6642396734       -0.2081550610       -1.5386311565
 H         -5.5647102452       -1.1478026367       -0.0480715302
 H         -3.3070428346        0.5333256460       -1.2498171621
 H         -3.4055840054       -1.2315482300       -1.3138770131
 H         -3.1766643213        0.4745199133        1.2094563783
 H         -3.3194698814       -1.3103721380        1.1899433682
 H          1.0584555811        2.2913636843       -0.0883827034
 H          3.4931624296        1.9097605306       -0.3505731155
 H          2.8710307675       -2.2907417085        0.0739382326
 H          0.4338171320       -1.9036502558        0.3367755682
 H          5.1389137174        0.3374281681       -0.4187178298
