! r2scan-3c def2/J RI DEFGRID2 scfconv6 printgap
%output
    printlevel normal
end
* xyz 0 1
C -3.0786917312 0.0318925231 -0.7115067434
C -1.5611637005 0.103352387 -0.5773739061
C -1.1149127085 -0.3009696634 0.8246317822
C 0.3969526777 -0.3011654594 1.0853739225
C 1.1897425627 -1.2532269554 0.1792575124
C 1.7248495778 -0.4155689487 -0.9906074142
C 1.6170502164 1.0582198735 -0.564309295
C 1.074454982 1.0583936271 0.8699880908
H -3.4320424182 -0.9800010824 -0.5243364209
H -3.5572442126 0.6974190196 0.0039661675
H -3.3883259496 0.3239645746 -1.712205693
H -1.1079740235 -0.5590945235 -1.3150521564
H -1.2351685526 1.1217674476 -0.7894845251
H -1.5824317687 0.3745460662 1.5467434243
H -1.4920899602 -1.3063749434 1.032924806
H 0.5181480448 -0.6071022967 2.1300004605
H 2.0254635784 -1.6679374022 0.7444966539
H 0.5765043777 -2.0857022611 -0.1629877488
H 2.756312029 -0.68624562 -1.2148036365
H 1.1411069632 -0.5922314625 -1.8933430962
H 2.5850469168 1.556415108 -0.6107445563
H 0.9441013287 1.5956924792 -1.2312174312
H 1.9023591617 1.1572745984 1.5735815005
H 0.3874949109 1.8848959364 1.046614069
*
