! r2scan-3c def2/J RI DEFGRID2 scfconv6 printgap
%output
    printlevel normal
end
%cpcm
    smd true
    smdsolvent "water"
end
* xyz 0 1
C -3.2389833815 1.2796170498 0.1361846554
C -1.9070789396 0.7833164456 -0.3241178606
O -1.7025151862 0.1357270539 -1.3271627605
O -0.9302700192 1.1979226015 0.4945187158
C 0.3890004607 0.8257960069 0.2643564822
C 1.3308369423 1.8401085275 0.1827241502
C 2.6620975409 1.5290649234 -0.0318947577
C 3.0533813172 0.2079990232 -0.1862725367
C 2.1164185131 -0.8038228135 -0.1069539693
C 0.7737015844 -0.5115046859 0.1313668988
C -0.2086899425 -1.6095066326 0.2751478777
O -1.2308551674 -1.5387969498 0.9328727389
O 0.1501240374 -2.7117166136 -0.3602506085
H -4.0033234829 0.5574373028 -0.1326229286
H -3.4518050801 2.2171083703 -0.3740889305
H -3.2189203028 1.4492083475 1.2073032602
H 1.0019549808 2.8611390292 0.2901540924
H 3.3905173138 2.3219261999 -0.0874917795
H 4.0882676549 -0.0336082835 -0.3659440799
H 2.4068704333 -1.8363971531 -0.2157046565
H -0.5001508699 -3.4329279789 -0.252195925
*
