! wb97x-v def2-tzvp def2/J RIJCOSX DEFGRID2 scfconv7 GCP(DFT/TZ) printgap
%output
    printlevel normal
end
* xyz 0 1
C 3.0945874916169194 -0.4284856327972114 0.16637071660512223
C 1.8905696135408425 0.31127677307825163 -0.40926694379715267
C 0.5674365133978828 -0.21627475762000875 0.14931669496355648
C -0.6245251248218705 0.5194589006600188 -0.4427254433419011
S -2.2538156072863678 -0.03822283827459945 0.2348798151783531
H 3.1307530901644562 -0.32928326342691316 1.256838570626473
H 4.033516825226001 -0.03663720728039173 -0.23732195168419834
H 3.0474582829642722 -1.4971242374302807 -0.07036378830780861
H 1.8863948160777029 0.21699814129140652 -1.5026755041148956
H 1.9733419618908261 1.3829654003076712 -0.18713379462151686
H 0.5591266826783304 -0.11033248848422238 1.2408219397676405
H 0.480069369691156 -1.288441408443721 -0.06967254279015798
H -0.579019484913534 1.5880960440218685 -0.2072705615067928
H -0.6495284765136629 0.4194267136819758 -1.5318486479586753
H -2.158242647032017 -1.317385908545395 -0.17536772170448334
*
