  33
        -53.58592406
 C         -2.7777024854        0.8144583764       -2.1429914758
 C         -2.8968181447        0.5759127707       -0.6371087541
 H         -3.9372431848        0.3869609913       -0.3608147408
 C         -2.0441176952       -0.5937436572       -0.1925424182
 C         -2.6283291053       -1.7224060213        0.3678474217
 C         -1.8468313137       -2.8001061844        0.7521564176
 C         -0.4756498861       -2.7535930840        0.5931245000
 C          0.1263995395       -1.6142912415        0.0631773437
 C         -0.6650977188       -0.5433234826       -0.3391801452
 C          1.6046202702       -1.5950657297       -0.1007685682
 O          2.2301617289       -2.6110838451       -0.3293709556
 C          2.2736417005       -0.2758462784        0.0251569273
 C          1.8074237001        0.7094457497        0.8934013972
 C          2.4746621060        1.9160581200        0.9920121943
 C          3.6047575375        2.1530834965        0.2258950665
 C          4.0830207207        1.1717468214       -0.6277525961
 C          3.4272594408       -0.0406363031       -0.7204474453
 C         -2.4190775171        1.7878295552        0.1373181931
 O         -1.4644688808        2.4643527464       -0.1329199890
 O         -3.1783476143        2.0098989284        1.2171002844
 H         -1.7724722498        1.1424897060       -2.3923991540
 H         -2.9946339026       -0.1040607482       -2.6824077207
 H         -3.4788543671        1.5831565049       -2.4594461708
 H         -3.7002959706       -1.7627742039        0.4967418287
 H         -2.3131361759       -3.6772895743        1.1752807456
 H          0.1491109825       -3.5848324296        0.8832124170
 H         -0.2065090470        0.3327115638       -0.7724821343
 H          0.9369042784        0.5219870150        1.5048169018
 H          2.1101371587        2.6766499378        1.6661115140
 H          4.1167370999        3.1012522498        0.2996314060
 H          4.9691886359        1.3525269914       -1.2180517055
 H          3.7874698613       -0.8198129200       -1.3757980430
 H         -2.8425464797        2.7671704244        1.7230981268
