! r2scan-3c def2/J RI DEFGRID2 scfconv6 printgap
%output
    printlevel normal
end
* xyz 0 1
C -2.1689069716 0.9382658272 -0.8534386835
C -1.8953424095 0.0267860492 0.3425218165
C -0.4562390258 -0.4213891811 0.3865489149
O -0.099469944 -1.5805477452 0.4504529359
O 0.3830151813 0.6048524884 0.3684353147
C 1.7941695066 0.33646205 0.3885589439
C 2.3275238891 0.0873988193 -1.0140434413
H -1.5309877101 1.8163160996 -0.8099452342
H -1.9765037416 0.4113894135 -1.7848011579
H -3.2074998404 1.2550051793 -0.8421156087
H -2.5223116821 -0.8640290654 0.3081999249
H -2.0989362195 0.5689392669 1.2675490382
H 2.2364851446 1.2306219688 0.828728765
H 1.9752497171 -0.5326730074 1.0282994261
H 2.1009218461 0.9331553266 -1.6574065811
H 3.4026921919 -0.0522454082 -0.9702968999
H 1.8722775446 -0.8081375204 -1.4313557384
*
