! r2scan-3c def2/J RI DEFGRID2 scfconv6 printgap
%output
    printlevel normal
end
* xyz 0 1
C 2.1285029963 1.3329563985 -0.0353239733
C 1.2527286809 0.2560567234 0.5975279113
C 0.347966237 -0.4563882894 -0.4270623532
H 0.6574418847 -0.1335518387 -1.4283164232
C 0.5516539798 -1.9714462648 -0.3626205314
C -1.1475108874 -0.0931625247 -0.3047842125
C -1.7799291718 -0.5240134295 1.0177602509
C -1.3755430755 1.4009730433 -0.5331165103
H 1.519648884 2.1013947352 -0.5048768884
H 2.7538481115 1.805139539 0.7195279531
H 2.7775329459 0.8992109091 -0.7931737755
H 0.6513665314 0.7097533491 1.3851785785
H 1.9015165655 -0.4794729278 1.0768409366
H 1.5767151253 -2.221128278 -0.6274498716
H 0.3587885481 -2.3489213815 0.6382497005
H -0.1133641013 -2.4786697583 -1.0586249144
H -1.6652035219 -0.6324804907 -1.1080725271
H -1.7265160785 -1.6014826283 1.1437314664
H -2.8282744497 -0.2340706604 1.0338285715
H -1.2876426882 -0.0523118662 1.8643474538
H -2.4411157226 1.6186922608 -0.5564016045
H -0.9429110689 1.714045204 -1.4807945351
H -0.9280961375 1.9895710528 0.2634796729
*
