! pbe def2-sv(p) def2/J RI DEFGRID1 loosescf d4 GCP(DFT/SV(P)) printgap
%output
    printlevel normal
end
* xyz 0 1
C -2.3785521045 0.7999955419 -0.0236983582
C -1.4727963294 -0.3537327558 -0.4403202786
C -0.3157166902 -0.6050096513 0.5444472575
C 1.0095188179 -0.0368085398 0.0970545512
C 1.1683602115 1.2227865367 -0.277533273
C 2.1530693618 -1.0060677236 0.104564352
H -2.8344914413 0.5946060922 0.9424756362
H -3.1726481778 0.9391873332 -0.7541585027
H -1.8205974723 1.7291303035 0.0538456246
H -2.0821112143 -1.2570013333 -0.5123005988
H -1.0631924478 -0.1543515911 -1.4324917333
H -0.5768101759 -0.1763025883 1.5151288646
H -0.1953726586 -1.679560247 0.6885402595
H 2.1252945213 1.6008383666 -0.5967805128
H 0.3580776862 1.9300682746 -0.2860864287
H 1.9460571145 -1.8316008406 -0.575304285
H 3.0788900323 -0.5251950081 -0.1994230987
H 2.283930801 -1.4220200679 1.1027590929
*
