! r2scan-3c def2/J RI DEFGRID2 scfconv6 printgap
%output
    printlevel normal
end
%cpcm
    smd true
    smdsolvent "water"
end
* xyz 0 1
C -2.1929245113 0.2423016563 -1.2445554931
C -1.9557809317 0.0567139026 0.2523909605
C -2.1331912437 -1.4045306986 0.6578808868
C -0.5642524126 0.5557487607 0.6413616625
O 0.4276490773 -0.2077042569 -0.0572180845
C 1.680797791 0.2199812941 -0.0070354161
O 2.0202995067 1.2105685414 0.6097935291
C 2.6013969146 -0.6500539805 -0.8091597636
H -1.4731826242 -0.3427286005 -1.811087894
H -2.0864400547 1.2882110033 -1.5224017691
H -3.1940057089 -0.085998762 -1.5094081734
H -2.6724097912 0.6712473768 0.806379397
H -1.4035062227 -2.0243585657 0.1439222218
H -3.1297527984 -1.7482618607 0.3955140824
H -1.9964384924 -1.5235245625 1.7298242753
H -0.4327416591 1.6128360125 0.3858054457
H -0.3905375955 0.4433929644 1.7169828925
H 2.1676038004 -1.6362721212 -0.9328704242
H 3.5688787913 -0.7037359233 -0.3197832141
H 2.7380851359 -0.1936681772 -1.7873805852
*
