! r2scan-3c def2/J RI DEFGRID2 scfconv6 printgap
%output
    printlevel normal
end
%cpcm
    smd true
    smdsolvent "water"
end
* xyz 0 1
C 2.6883847814 0.4093516268 0.4782559153
C 1.2503261448 0.0711694337 0.8626196271
C 0.2711878226 0.0721185045 -0.3212467695
H 0.2800432076 1.0739590769 -0.7676568712
C 0.7237165815 -0.9329380843 -1.3816286813
C -1.1715045761 -0.2305425476 0.1404317459
C -1.6286478058 0.6978145248 1.2684699822
C -2.1652680927 -0.1064281651 -1.0171843144
H 3.1503327626 -0.3891668661 -0.0953356189
H 2.7190324857 1.3236368944 -0.1107169284
H 3.2832245784 0.5619048131 1.3761180466
H 0.9235516956 0.8123310066 1.5916151445
H 1.2253487261 -0.9085375035 1.3456600184
H 1.7277721877 -0.7011435647 -1.7238838132
H 0.7211728952 -1.9406618309 -0.9705488553
H 0.0715594595 -0.9106524689 -2.2491827932
H -1.2002386574 -1.2618550398 0.5112868143
H -1.1021403711 0.493336927 2.1960604114
H -2.6911978131 0.5575274098 1.4546881392
H -1.4658721373 1.7379117853 0.993598623
H -3.1804728652 -0.2464715496 -0.6526774762
H -1.9853564212 -0.8520120275 -1.7855598622
H -2.0977423822 0.8817318975 -1.4676042345
*
