! pbe def2-sv(p) def2/J RI DEFGRID1 loosescf d4 GCP(DFT/SV(P)) printgap
%output
    printlevel normal
end
* xyz 0 1
C -2.5865762075 -1.7448221018 1.7046206016
C -3.4112223404 -0.7906523538 0.8493999829
C -2.7803423601 -0.3970664186 -0.4951406158
H -3.3989073881 0.4081928732 -0.9102737475
C -2.7511127738 -1.5269797367 -1.5156712995
N -1.4631711661 0.2422929281 -0.2903374536
C -0.285468425 -0.5030031819 -0.2222251029
O -0.261796604 -1.7159399909 -0.3031724165
C 0.9141519792 0.2928091582 -0.0463151286
C 0.904121097 1.6408335581 0.0946434321
N -0.3127142733 2.2511911325 0.058891931
C -1.5103684327 1.6080028664 -0.1168699882
O -2.5491813342 2.2470122911 -0.1224397934
C 2.1116354649 2.4804578113 0.2927542326
Br 2.5370936014 -0.6930772451 0.0085204838
H -2.3272547204 -2.6442035476 1.1536732766
H -1.6622323975 -1.2765211229 2.0383391001
H -3.1561271393 -2.030187656 2.5852197756
H -4.3758546361 -1.2474517718 0.6267322853
H -3.5984005245 0.126626155 1.4135997995
H -2.2479938995 -2.4088489361 -1.1349086312
H -3.7759701216 -1.7833242224 -1.7680069719
H -2.2408682575 -1.2045141795 -2.4204631317
H -0.3750933826 3.257624137 0.1773215358
H 2.8449581641 2.2666462036 -0.4827756375
H 2.5788920346 2.2370823381 1.2461096533
H 1.861708968 3.5356217179 0.2754691334
*
