! pbe def2-sv(p) def2/J RI DEFGRID1 loosescf d4 GCP(DFT/SV(P)) printgap
%output
    printlevel normal
end
* xyz 0 1
C -2.5868048366 0.6938147834 -0.4906609983
C -1.7406715457 0.1893312042 0.6819205789
C -0.4304303098 -0.3418535246 0.1604528187
O -0.1869084529 -1.5148725432 -0.0346250591
O 0.4204470789 0.6410110054 -0.1016389724
C 1.7112521331 0.3089648963 -0.6393055977
C 2.7112749576 0.0326388998 0.4728958992
H -2.7763094208 -0.1132534337 -1.1944562962
H -3.5376845906 1.0665875456 -0.1222535603
H -2.0696097314 1.4969480933 -1.0090357649
H -2.2577294808 -0.6170915214 1.2004459503
H -1.5379107651 1.009724969 1.3689890621
H 1.6048676297 -0.5656418244 -1.2882110008
H 1.9998349007 1.1830290178 -1.2239998768
H 3.6896556859 -0.1487270417 0.0401768689
H 2.7677412212 0.8843382113 1.1453136261
H 2.4066241598 -0.8455882673 1.0378598504
*
