  26
        -45.60792029
 C         -4.0555731920       -0.3881319556       -0.0160905857
 C         -3.9188881872        0.9922653014       -0.0154800429
 C         -2.6583849687        1.5596884779       -0.0065629533
 C         -1.5184551173        0.7590160460        0.0009190742
 C         -1.6565653407       -0.6343077165       -0.0001662800
 C         -2.9312341335       -1.1931634962       -0.0082085673
 C         -0.4819667205       -1.5400377402        0.0080267201
 O         -0.6132555199       -2.7531611527        0.0159181739
 C          0.8322719643       -0.8902548927        0.0042854424
 C          1.9828948213       -1.6823955091        0.0019500575
 C          3.2378463765       -1.1213158945        0.0006201606
 C          3.3917101554        0.2718153094       -0.0002915300
 C          2.2433837957        1.0687507151        0.0017391672
 C          0.9779279433        0.5057774180        0.0043266373
 C         -0.1919147554        1.4116001826        0.0123847604
 O         -0.0694235571        2.6229761180        0.0281740646
 N          4.6291526614        0.8401415355       -0.0541602448
 H         -5.0388509598       -0.8347809641       -0.0228055261
 H         -4.7950775967        1.6235562986       -0.0217792166
 H         -2.5279524858        2.6318935710       -0.0052296750
 H         -3.0140915527       -2.2700830712       -0.0082195296
 H          1.8578652182       -2.7549977357        0.0038297839
 H          4.1170713196       -1.7492708247       -0.0006205410
 H          2.3271925951        2.1460399779        0.0015431345
 H          4.7141161189        1.8255019777        0.1238091021
 H          5.4343257843        0.2684238158        0.1317447557
