  26
        -45.60792029
 C         -4.0555731920       -0.3881319556       -0.0160905857
 C         -3.9188881872        0.9922653014       -0.0154800429
 C         -2.6583849687        1.5596884779       -0.0065629533
 C         -1.5184551173        0.7590160460        0.0009190742
 C         -1.6565653407       -0.6343077165       -0.0001662800
 C         -2.9312341335       -1.1931634962       -0.0082085673
 C         -0.4819667205       -1.5400377402        0.0080267201
 O         -0.6132555199       -2.7531611527        0.0159181739
 C          0.8322719643       -0.8902548927        0.0042854424
 C          1.9828948213       -1.6823955091        0.0019500575
 C          3.2378463765       -1.1213158945        0.0006201606
 C          3.3917101554        0.2718153094       -0.0002915300
 C          2.2433837957        1.0687507151        0.0017391672
 C          0.9779279433        0.5057774180        0.0043266373
 C         -0.1919147554        1.4116001826        0.0123847604
 O         -0.0694235571        2.6229761180        0.0281740646
 N          4.6291526614        0.8401415355       -0.0541602448
 H         -5.0388509598       -0.8347809641       -0.0228055261
 H         -4.7950775967        1.6235562986       -0.0217792166
 H         -2.5279524858        2.6318935710       -0.0052296750
 H         -3.0140915527       -2.2700830712       -0.0082195296
 H          1.8578652182       -2.7549977357        0.0038297839
 H          4.1170713196       -1.7492708247       -0.0006205410
 H          2.3271925951        2.1460399779        0.0015431345
 H          4.7141161189        1.8255019777        0.1238091021
 H          5.4343257843        0.2684238158        0.1317447557
  26
        -45.60779074
 C         -4.0553366097       -0.3881825117        0.0006596880
 C         -3.9188174364        0.9922124236       -0.0003168585
 C         -2.6583035586        1.5596759829        0.0000858277
 C         -1.5183017539        0.7590747168        0.0013028428
 C         -1.6562264932       -0.6342231961        0.0023110222
 C         -2.9308585486       -1.1931108180        0.0020595447
 C         -0.4813177952       -1.5399774748        0.0032856691
 O         -0.6132600039       -2.7532462620        0.0054512680
 C          0.8321042410       -0.8904566576        0.0010438866
 C          1.9832999027       -1.6823365745       -0.0000622370
 C          3.2380090473       -1.1217201439       -0.0030147576
 C          3.3919365787        0.2719847002       -0.0048983162
 C          2.2429480130        1.0690594786       -0.0032932716
 C          0.9780142380        0.5057930281       -0.0004066160
 C         -0.1917723025        1.4116646430        0.0013615328
 O         -0.0693142945        2.6232536385        0.0027475429
 N          4.6252615910        0.8390099233       -0.0074273043
 H         -5.0385987160       -0.8349868451        0.0002046766
 H         -4.7950874372        1.6234522787       -0.0015119936
 H         -2.5279735806        2.6319046864       -0.0006010293
 H         -3.0135967231       -2.2700427153        0.0028733584
 H          1.8582414042       -2.7549320431        0.0013881619
 H          4.1173360426       -1.7495388369       -0.0037194926
 H          2.3266432706        2.1463241392       -0.0043816750
 H          4.7228912438        1.8370068197       -0.0115175110
 H          5.4494482758        0.2679635166       -0.0110714486
