! wb97x-v def2-tzvp def2/J RIJCOSX DEFGRID2 scfconv7 GCP(DFT/TZ) printgap
%output
    printlevel normal
end
%cpcm
    smd true
    smdsolvent "water"
end
* xyz 0 1
C -2.569171357472227 -0.3257280711321343 -0.34620764271061577
C -1.7215005652276085 -1.3545573005496474 0.05764468862465911
C -0.4191519914672505 -1.069638644377724 0.46270394822383115
C 0.05819529485604511 0.2444562155816209 0.47001966275848667
C -0.8025308800863029 1.269316868693558 0.061871967321308674
C -2.10520427136456 0.9888122494271777 -0.34155502682543826
C 1.4808866042604605 0.5477051941612466 0.8522126773935207
C 2.4081921646600253 0.6572950205348522 -0.3595001094023404
O 2.4652925754336064 -0.5543023214896258 -1.129732993728457
H -3.585166278735158 -0.5455377869456758 -0.658867125468312
H -2.07495594525959 -2.381283427913027 0.06031383531953162
H 0.2366430572305276 -1.8754240554865156 0.7816237951846862
H -0.44729316320398893 2.296788473764639 0.06466335302186464
H -2.761217405929072 1.7977903178427515 -0.648876473932177
H 1.5337713146930994 1.5015831996395155 1.3902439475600081
H 1.8668058774398189 -0.2313225853574491 1.5204835732542408
H 2.044933143511498 1.429812874748372 -1.0449878769621523
H 3.4147446294364605 0.9414942853059236 -0.022928462949805863
H 2.7778322351345963 -1.2542670245036494 -0.5412766669255993
*
