! r2scan-3c def2/J RI DEFGRID2 scfconv6 printgap
%output
    printlevel normal
end
%cpcm
    smd true
    smdsolvent "water"
end
* xyz 0 1
C -3.3629439575 -0.3162582388 -0.5981890481
C -2.1393073759 -0.5269436967 0.2862809056
C -0.9893017976 0.3938995787 -0.1176740605
C 0.2497163898 0.2398426292 0.7702408135
C 1.0157517183 -1.0594857684 0.5039591803
C 1.876066131 -0.7421036098 -0.7165042169
C 2.3081252213 0.7155616076 -0.5127918866
C 1.2998065477 1.3263378961 0.4787965054
H -3.7101282913 0.7123942527 -0.5300277491
H -3.1217238861 -0.5273212171 -1.6376544557
H -4.1736054701 -0.9735925139 -0.2931541418
H -2.4060845847 -0.3321257559 1.3278270173
H -1.8246277679 -1.5696582473 0.2166820949
H -0.7224494548 0.2057160451 -1.1585973801
H -1.3391313012 1.4273912013 -0.0498421391
H -0.0763873822 0.2920729074 1.8134377013
H 1.6562083495 -1.2829898104 1.3587028551
H 0.3596458219 -1.9114288085 0.337799851
H 2.728151986 -1.4146716543 -0.8039797905
H 1.2812399858 -0.8384068119 -1.6251659459
H 3.3155071298 0.7572901621 -0.0988885032
H 2.3181095445 1.2580204802 -1.4571952188
H 1.8069881243 1.6046387472 1.402812826
H 0.8347763654 2.2250312475 0.0756499509
*
