! r2scan-3c def2/J RI DEFGRID2 scfconv6 printgap
%output
    printlevel normal
end
%cpcm
    smd true
    smdsolvent "water"
end
* xyz 0 1
C -1.8369745847 0.9646972903 0.7885693249
C -1.139024894 0.3221090793 -0.4038699517
C 0.0196219363 -0.6074833171 -0.0087337039
C 1.4025407969 0.0226463436 -0.2198093099
C 1.6504789886 1.2445922836 0.6549743752
O -0.113996547 -1.7830152541 -0.7989718957
H -2.6484566988 1.6005512817 0.4437504111
H -2.2536697409 0.200950726 1.441038521
H -1.1457198258 1.5711699309 1.3669745766
H -1.857186322 -0.2882852539 -0.9552920382
H -0.7736433675 1.0923887378 -1.0843120428
H -0.0890245643 -0.8819504549 1.0535812371
H 2.1623601781 -0.7315625317 0.0033984848
H 1.5008810389 0.2905257063 -1.2742767122
H 0.976889551 2.0551041027 0.3924752438
H 1.5054182536 0.9961335868 1.703903008
H 2.6712984396 1.5937306607 0.5218499397
H 0.6087619509 -2.392077337 -0.5963432383
*
