  12
        -14.56392154
 C         -1.2601988314       -0.7283369142       -0.1050741677
 C         -0.0000132456       -0.0001059078        0.3645971863
 C          1.2598047177       -0.7289999743       -0.1050698959
 O          0.0003770802        1.3470587768       -0.0595373883
 H         -1.2975520388       -1.7284482788        0.3174138219
 H         -2.1452862500       -0.1806520513        0.2091471742
 H         -1.2681439447       -0.8082817722       -1.1915353530
 H         -0.0000251937        0.0609656865        1.4583190388
 H          1.2963486755       -1.7293053433        0.3170436890
 H          2.1451989220       -0.1820177504        0.2095778369
 H          1.2679261401       -0.8085236038       -1.1915340053
 H          0.0004023632        1.3611953806       -1.0239317225
  12
        -14.56166854
 C         -1.2666083851       -0.7011024009       -0.1312046919
 C          0.0007751091       -0.0179927324        0.3693319471
 C          1.2544815804       -0.7381907948       -0.1271826350
 O         -0.0390191169        1.3208273831       -0.0887722417
 H         -2.1378017582       -0.1471868351        0.2067077254
 H         -1.2686129578       -0.7165468207       -1.2178348792
 H         -1.3206598558       -1.7188226087        0.2443552735
 H         -0.0000315784       -0.0229844936        1.4736910492
 H          1.2821980066       -0.7237227112       -1.2144998528
 H          1.2530522853       -1.7705691454        0.2112686842
 H          2.1531114961       -0.2521056084        0.2507360526
 H          0.7934101765        1.7513981376        0.1326349521
  12
        -14.56012265
 C         -1.2724144315       -0.7350816276       -0.1048688482
 C         -0.0009820282       -0.0005720854        0.3637041437
 C          1.2625827955       -0.7240370604       -0.1045545586
 O          0.0063185376        1.3477483860       -0.0591423207
 H         -1.9008109197       -1.0100559604        0.7367566341
 H         -1.8540184734       -0.0845994051       -0.7550050332
 H         -1.0225751475       -1.6378893698       -0.6563371025
 H          0.0102088571        0.0677416644        1.4561703825
 H          1.2724895502       -0.8022838256       -1.1913590090
 H          1.3030266496       -1.7238737722        0.3190109642
 H          2.1453362587       -0.1730888686        0.2121401298
 H          0.0749076763        1.3648237725       -1.0210934902
