  20
        -25.64609188
 C         -2.3310641859       -1.2326105795       -0.0647264478
 N         -1.6085361813        0.0001087528        0.1366026987
 C         -2.3308577491        1.2326413683       -0.0666247320
 C         -0.2317618800       -0.0000065332        0.0510400163
 C          0.4976669173        1.1965398643        0.0247926506
 C          1.8777521805        1.1899291790       -0.0149800478
 C          2.5836655617       -0.0000553177       -0.0354247168
 C          1.8776783509       -1.1899917073       -0.0159851315
 C          0.4975673404       -1.1965563730        0.0237529395
 H         -3.3987507623       -1.0431240194        0.0226137451
 H         -2.0588886148       -1.9602361763        0.7027342836
 H         -2.1379920839       -1.6739244865       -1.0507272575
 H         -3.3986760298        1.0429974839        0.0185056965
 H         -2.1358193379        1.6736144387       -1.0523765482
 H         -2.0604416284        1.9606718080        0.7010892619
 H         -0.0087479855        2.1477211897        0.0351328612
 H          2.4073534730        2.1320782759       -0.0339681449
 H          3.6624857182       -0.0000587582       -0.0689732973
 H          2.4071850513       -2.1321891706       -0.0358799335
 H         -0.0088535563       -2.1477498795        0.0331980029
