  23
        -23.15823191
 C         -3.7934842482        0.3625667308       -0.0018413584
 C         -2.5342489650       -0.4954354885       -0.0002456177
 C         -1.2664310952        0.3552246883        0.0014060801
 C          0.0000202180       -0.4973296983        0.0012529216
 C          1.2664533084        0.3552340547        0.0023763361
 C          2.5342387638       -0.4954670175       -0.0008709437
 C          3.7934469283        0.3625855116       -0.0017482122
 H         -3.8220089617        0.9994149968        0.8797497031
 H         -4.6838019941       -0.2620524724       -0.0029454919
 H         -3.8197791652        0.9993357791       -0.8835594995
 H         -2.5338584827       -1.1408116388       -0.8817727469
 H         -2.5361164663       -1.1409854219        0.8811496012
 H         -1.2660140508        1.0019256307       -0.8794455909
 H         -1.2671064534        1.0002944996        0.8834524802
 H         -0.0003204092       -1.1443999788        0.8819230553
 H          0.0003467265       -1.1427487080       -0.8806386330
 H          1.2673221135        0.9990071595        0.8853606935
 H          1.2658390755        1.0032074924       -0.8775356968
 H          2.5364546942       -1.1422168246        0.8796361272
 H          2.5334908181       -1.1396367480       -0.8832832835
 H          3.8184300292        1.0020576214       -0.8815933718
 H          3.8233964645        0.9967528181        0.8817298345
 H          4.6837867157       -0.2620646737       -0.0061502794
