! r2scan-3c def2/J RI DEFGRID2 scfconv6 printgap
%output
    printlevel normal
end
* xyz 0 1
C -2.4347705133 0.8146543648 0.5386893387
C -1.2795420378 -0.1396955486 0.2347881402
C -1.6320782128 -1.0115768396 -0.9683778419
C -3.34063e-05 0.6720645043 4.85899e-05
C 1.2794760081 -0.1396494386 -0.2347505426
C 2.4346871924 0.8146785363 -0.5387820421
C 1.6322467945 -1.0114845582 0.9683970359
H -2.6149906276 1.4727022012 -0.3088641998
H -3.3471109562 0.2582362116 0.7406923511
H -2.208518756 1.4285474638 1.4074932713
H -1.1374763331 -0.7862482309 1.1064372545
H -2.5850585927 -1.5099389547 -0.8049174854
H -1.7133894214 -0.4020360139 -1.8659786475
H -0.8772282946 -1.7750610606 -1.1357357584
H 0.1611121373 1.3195913229 0.8662180663
H -0.1611945925 1.3196278435 -0.8660962595
H 1.1373271407 -0.7862466627 -1.1063515356
H 2.2082551717 1.428713558 -1.4074373594
H 2.6151290489 1.4725945897 0.3088269202
H 3.3469602471 0.2582581981 -0.7410830893
H 1.7147475229 -0.4017496771 1.8657528173
H 0.8769142863 -1.7743025432 1.1365617592
H 2.5846909444 -1.5106643794 0.8043308125
*
