  25
        -29.34301808
 C          4.6234334313       -0.8216955166        0.0985325169
 C          3.5395173381        0.1884734900       -0.2567013882
 C          2.1554857459       -0.2872791106        0.1783299756
 C          1.0638114146        0.7200070237       -0.1740312211
 C         -0.3188924186        0.2417447632        0.2617464380
 C         -1.4093550961        1.2542647702       -0.0826908662
 C         -2.7901965684        0.7580777704        0.3465109018
 C         -3.2063599043       -0.4619109001       -0.4197668495
 O         -3.7288246962       -1.4355049934        0.0436829303
 H          4.6520711023       -0.9880970180        1.1732082667
 H          5.6000007674       -0.4642681738       -0.2196432964
 H          4.4308876919       -1.7747918452       -0.3892556698
 H          3.5400912295        0.3567674014       -1.3361391202
 H          3.7607273082        1.1431426751        0.2262645227
 H          1.9344792473       -1.2421474480       -0.3043354272
 H          2.1557852721       -0.4561863490        1.2577225193
 H          1.0644657312        0.8896327254       -1.2535475473
 H          1.2840804884        1.6750758710        0.3092667953
 H         -0.3172850869        0.0667558948        1.3399748314
 H         -0.5447684896       -0.7107511634       -0.2242023034
 H         -1.1960605782        2.2018342660        0.4160590462
 H         -1.4088442508        1.4381340232       -1.1598730133
 H         -2.8148980692        0.5426881220        1.4160166158
 H         -3.5361111958        1.5305838048        0.1353170521
 H         -2.9985107888       -0.3890230447       -1.5074067273
