  15
  -26.1479877800000       0.282279781376312      !hor
 C         -0.1398075351       -1.3543169660        0.0000004254
 C          1.2271327543       -1.1954357471       -0.0000053387
 C          1.7802185676        0.0864977046       -0.0000013135
 C          0.9437578556        1.2020492254        0.0000000118
 C         -0.4234162363        1.0368236020       -0.0000005874
 C         -0.9844685453       -0.2419404163        0.0000061105
 C         -2.4376079835       -0.4028844570        0.0000199323
 O         -3.2423643534        0.4957471702       -0.0000115560
 O          3.1270249893        0.1971540154        0.0000003630
 H         -0.5661218344       -2.3469276816       -0.0000058235
 H          1.8938555772       -2.0428989076       -0.0000131987
 H          1.3751751467        2.1944526087        0.0000039767
 H         -1.0854850600        1.8895579654        0.0000059850
 H         -2.7678938747       -1.4617547625       -0.0000500850
 H          3.3888172994        1.1266765437        0.0000075389
  15
  -26.1479877700000       0.282276794321784      !mtd10
 C         -0.3596250379       -1.0606918485       -0.0000880115
 C          1.0150661892       -1.1424754925        0.0000099154
 C          1.7822011285        0.0218594137        0.0000532308
 C          1.1522219405        1.2677974402       -0.0001400242
 C         -0.2218426464        1.3432656126       -0.0002636758
 C         -0.9973508776        0.1816136382       -0.0001689126
 C         -2.4575623855        0.2540505626       -0.0001771712
 O         -3.2063108934       -0.6917392544        0.0004071829
 O          3.1332399802       -0.0068062280        0.0001924302
 H         -0.9685658804       -1.9521407986        0.0002679021
 H          1.5060516408       -2.1068041886        0.0002017483
 H          1.7661569258        2.1542489165       -0.0001593946
 H         -0.7077590739        2.3081054901       -0.0002396490
 H         -2.8514987047        1.2909255242       -0.0005553372
 H          3.4510182559       -0.9187053539        0.0001978561
  15
  -26.1477423800000       0.217721712150952      !md4
 C         -0.3482748697       -1.0664082596       -0.0002142401
 C          1.0246102584       -1.1385751453       -0.0000152803
 C          1.7821673780        0.0344498362        0.0000742906
 C          1.1417019240        1.2727612701       -0.0003562992
 C         -0.2353228974        1.3388431858       -0.0005402206
 C         -0.9986378684        0.1718249252       -0.0003745012
 C         -2.4593633170        0.2341317686       -0.0002318938
 O         -3.2022248828       -0.7159053905        0.0008233257
 O          3.1288185743       -0.0773421277        0.0005372332
 H         -0.9508205915       -1.9618965455       -0.0004840001
 H          1.5410734309       -2.0851005029        0.0003001098
 H          1.7320022509        2.1798584081       -0.0004344501
 H         -0.7279676141        2.3005830827       -0.0006163843
 H         -2.8602252364        1.2687390247       -0.0010477619
 H          3.5408796303        0.7959176019        0.0004448531
  15
  -26.1477423800000       0.217721712150952      !input
 C         -0.1533406945       -1.3507004026       -0.0000341944
 C          1.2170067882       -1.2007131571        0.0000088192
 C          1.7809972024        0.0743891020        0.0000147416
 C          0.9534173291        1.1990349731       -0.0000523878
 C         -0.4125801919        1.0432304728       -0.0000782159
 C         -0.9863113380       -0.2322570208       -0.0000567656
 C         -2.4405222876       -0.3835368972       -0.0000279963
 O         -3.2399575137        0.5194158877        0.0001198560
 O          3.1183831478        0.2674621416        0.0000687509
 H         -0.5865566631       -2.3405914051       -0.0000489693
 H          1.8618237064       -2.0699578181        0.0000309862
 H          1.4109366758        2.1753807010       -0.0000759709
 H         -1.0686907285        1.9004063410       -0.0001166748
 H         -2.7774310177       -1.4407888508       -0.0002258873
 H          3.5823506909       -0.5794297236        0.0001357711
