  19
        -23.01421256
 C          3.2205254792       -0.8872611420        0.0965899060
 C          2.2977321733        0.2750518329       -0.2480198327
 C          0.8673090543        0.0199784341        0.2206667550
 C         -0.0626203259        1.1843396315       -0.1142761664
 C         -1.4938227226        0.9080145245        0.3467978014
 C         -2.1061368346       -0.2411972190       -0.3970003747
 O         -2.7602981438       -1.1202232338        0.0879022670
 H          2.8709558053       -1.8036354215       -0.3738151000
 H          3.2491691015       -1.0454813425        1.1723939815
 H          4.2323899737       -0.6883123635       -0.2483248783
 H          2.3009559806        0.4327469153       -1.3290808721
 H          2.6728618175        1.1881751332        0.2201336837
 H          0.8658653144       -0.1434396248        1.3007430580
 H          0.4881962820       -0.8911060381       -0.2491401574
 H         -0.0564027546        1.3573060924       -1.1933167245
 H          0.3027360656        2.0924295781        0.3696112646
 H         -1.5291490169        0.7083403126        1.4190513162
 H         -2.1177720884        1.7831756371        0.1406254805
 H         -1.9122904750       -0.2102220187       -1.4892570158
