! r2scan-3c def2/J RI DEFGRID2 scfconv6 printgap
%output
    printlevel normal
end
%cpcm
    smd true
    smdsolvent "water"
end
* xyz 0 1
C 2.2586249621 -1.0036418612 -0.6772794827
C 1.6017454383 0.3309947801 -0.3476463471
C 0.3521958737 0.204645523 0.5365867757
H 0.6309266901 -0.3335952993 1.4516494339
C -0.8154853022 -0.563208768 -0.1219827649
C -1.9151265647 -0.7994690859 0.9132268183
C -1.3916364565 0.1578079416 -1.3401680768
O -0.0497350885 1.4825384334 1.0009419009
H 3.20368487 -0.8343789441 -1.1869868699
H 1.6266225442 -1.6034482119 -1.3263861742
H 2.4540177278 -1.5665988117 0.2323474497
H 2.3133032167 0.9561381703 0.1975743695
H 1.3464830822 0.8533108504 -1.2717965566
H -0.4256201628 -1.5341961677 -0.439360741
H -1.5431780296 -1.4081181203 1.7341131418
H -2.2522504716 0.1510915039 1.3208253275
H -2.7626910376 -1.3076441172 0.4606516165
H -2.1722768897 -0.4522382964 -1.7882095308
H -0.6297966997 0.335351186 -2.0946698533
H -1.836087634 1.1074262903 -1.0504478534
H -0.2399487248 2.0384614522 0.2326646654
*
