  16
  -29.7860367100000       0.250007275130143      !gc
 C         -2.5838117315        0.2512182735       -0.0000382401
 C         -1.8874569494        1.4616450228        0.0001110540
 C         -0.5168006422        1.4449665438        0.0001277928
 C          0.1920417567        0.2364001466        0.0000158494
 C         -0.5015151475       -0.9979111762       -0.0000305077
 C         -1.9096434763       -0.9423738914       -0.0001073895
 N          0.1219739436       -2.1884189190        0.0000281548
 N          1.6063007235        0.3122951408       -0.0001190943
 O          2.1268113821        1.4117874591       -0.0001875398
 O          2.2600250286       -0.7280408196        0.0002201724
 H         -3.6633910159        0.2545162107       -0.0000920440
 H         -2.4227823121        2.3970563445        0.0002266921
 H          0.0548606562        2.3603235840        0.0002256851
 H         -2.4524653202       -1.8763181327       -0.0002148576
 H          1.1330616385       -2.2081470361        0.0000137395
 H         -0.4165838929       -3.0353439398       -0.0003496204
  16
  -29.7860366900000       0.250001984057518      !mtd9
 C         -2.5837850657        0.2512026414       -0.0001045160
 C         -1.8874740207        1.4616563979        0.0002163737
 C         -0.5168169157        1.4449665928        0.0002241641
 C          0.1920751489        0.2364312533        0.0000417530
 C         -0.5014341873       -0.9978931916       -0.0000215315
 C         -1.9095772370       -0.9423712930       -0.0001758968
 N          0.1218940584       -2.1884745859       -0.0001331636
 N          1.6062704714        0.3123221662       -0.0000547301
 O          2.1268744987        1.4118020919       -0.0005476392
 O          2.2599676939       -0.7280260333        0.0005016820
 H         -3.6633650652        0.2544731102        0.0000025694
 H         -2.4227902983        2.3970706254        0.0003698537
 H          0.0548570077        2.3603266153        0.0002659334
 H         -2.4524129753       -1.8763053885       -0.0003160572
 H         -0.4171424158       -3.0352134945        0.0005090996
 H          1.1329197950       -2.2088992431        0.0003601055
  16
  -29.7860366800000       0.249999338563198      !mtd12
 C         -2.5837751539        0.2512156345        0.0002227998
 C         -1.8874720495        1.4616613380        0.0002422557
 C         -0.5168070103        1.4449842843        0.0000990538
 C          0.1920385631        0.2364412199       -0.0000876845
 C         -0.5014638884       -0.9979047516       -0.0001874585
 C         -1.9095933317       -0.9423778984        0.0000384743
 N          0.1219142279       -2.1884520077       -0.0008549650
 N          1.6062891344        0.3122851682        0.0000091468
 O          2.2600118157       -0.7280307589       -0.0006625170
 O          2.1268173279        1.4117861229        0.0011030325
 H         -3.6633592785        0.2545045936        0.0009261969
 H         -2.4228025987        2.3970648753        0.0007502255
 H          0.0548980142        2.3603209768        0.0003606641
 H         -2.4524798867       -1.8762795858        0.0000517249
 H         -0.4167594319       -3.0353421020       -0.0004817420
 H          1.1329587971       -2.2086144654       -0.0007476092
  16
  -29.7860366500000       0.249991402249141      !mtd7
 C         -2.5837524707        0.2512170007        0.0001683372
 C         -1.8874563359        1.4616887022        0.0003471903
 C         -0.5168023886        1.4450160966        0.0004338353
 C          0.1920048716        0.2364361992        0.0000435730
 C         -0.5014473313       -0.9979077838       -0.0003487651
 C         -1.9095912885       -0.9423851304       -0.0001993402
 N          0.1219445990       -2.1884492750       -0.0004621015
 N          1.6062425274        0.3122950923        0.0000384458
 O          2.2599634863       -0.7280511636       -0.0008192982
 O          2.1268601615        1.4117475502        0.0010468091
 H         -3.6633607502        0.2545280821       -0.0007652122
 H         -2.4228422621        2.3970392033       -0.0001686678
 H          0.0550034044        2.3602835265        0.0004047794
 H         -2.4525203593       -1.8762501203       -0.0008346162
 H          1.1329870953       -2.2084818198       -0.0008518467
 H         -0.4168314461       -3.0352435942       -0.0008094198
