! r2scan-3c def2/J RI DEFGRID2 scfconv6 printgap
%output
    printlevel normal
end
* xyz 0 1
C -2.7774633487 1.0434002573 0.2642278924
C -2.2386866205 -0.1278100095 -0.5555565132
C -2.5988413996 -1.4541947997 0.1115371432
C -0.730918988 -0.0033904888 -0.8286794587
C 0.144787063 -0.0185316224 0.4232215714
C 1.6598089564 0.1093518309 0.1729309166
C 2.1802946099 -1.0554973286 -0.6728828929
C 1.9953872947 1.4331507092 -0.518589993
C 2.3608762176 0.0769428291 1.5366909491
H -2.4018436212 1.0092117567 1.2836281573
H -3.8637195154 1.0038350358 0.3046569795
H -2.4852373748 1.9908330346 -0.1827913164
H -2.7325111714 -0.1031337474 -1.5353850759
H -2.223336969 -1.4905602016 1.1309379906
H -3.6793790025 -1.5743622159 0.1466047861
H -2.1786954514 -2.2893507077 -0.4442851529
H -0.4409725803 -0.8279392295 -1.4824462794
H -0.566350461 0.9278973712 -1.3736080797
H -0.026066417 -0.9513359725 0.9636933722
H -0.1554751866 0.8037030096 1.0752388936
H 1.7832541043 -1.0141801272 -1.6836149441
H 3.2655707262 -1.0155888925 -0.7365794737
H 1.8983462501 -2.0071498816 -0.2278071194
H 1.6036519516 1.4562957847 -1.5320697993
H 1.576284092 2.2706075879 0.034973472
H 3.0741429339 1.5636952799 -0.5723924482
H 2.1485135938 -0.8556689436 2.0547718932
H 2.0221319747 0.9005381802 2.1613617488
H 3.4383712596 0.1618808123 1.4147380776
*
