! pbe def2-sv(p) def2/J RI DEFGRID1 loosescf d4 GCP(DFT/SV(P)) printgap
%output
    printlevel normal
end
* xyz 0 1
C 1.5565085101 0.2410699067 -1.1918056423
C 1.1130049899 -0.2140518213 0.1971574231
H 0.934749453 -1.2935492787 0.1922349847
C -0.127702022 0.5192833119 0.7324376855
C -1.5064833693 0.1423190296 0.164433062
C -1.7724550556 0.7152937714 -1.2267313008
C -1.750428653 -1.365376135 0.1751236744
O 2.1812319313 -0.0599228146 1.1261563242
H 2.5533970966 -0.1466894846 -1.3915311182
H 0.8853592893 -0.1354092922 -1.9553265658
H 1.5828303025 1.3269883588 -1.2502691939
H -0.1497594746 0.3188791583 1.8078360074
H 0.0194775288 1.5950052435 0.6017988407
H -2.2350278002 0.6013727166 0.8445483539
H -1.5320624588 1.7748870324 -1.2607611661
H -2.8241197108 0.595891425 -1.4778542565
H -1.1887332769 0.2018110454 -1.9843418199
H -2.7943140463 -1.5748637886 -0.0463127282
H -1.1405110743 -1.8628305717 -0.5748308338
H -1.5145271983 -1.785797903 1.1498013707
H 2.4222195909 0.8762672413 1.1654654329
*
