! r2scan-3c def2/J RI DEFGRID2 scfconv6 printgap
%output
    printlevel normal
end
* xyz 0 1
C 0.0630821749 -2.5611975312 0.0453952694
C -0.0649204541 -1.0735207483 -0.2172001795
O 0.8471814355 -0.3417298599 0.5928341342
C 1.8181592503 0.3735386379 0.0003955464
O 2.0136503259 0.3594090673 -1.1920587721
C 2.6247893795 1.1215208902 1.0105730919
O -1.3766466505 -0.6792848086 0.1443790911
C -1.7580900046 0.5850492756 -0.1072490681
O -1.0319273092 1.394641519 -0.6380577795
C -3.1532870218 0.8306497286 0.3624295374
H -0.690367131 -3.0882956041 -0.5297089649
H -0.0884896006 -2.7471463558 1.1042778258
H 1.0524850807 -2.8946913852 -0.2503356595
H 0.1245621545 -0.807472427 -1.269025033
H 3.304054057 0.4217048335 1.4929698401
H 3.1983826935 1.8966887343 0.5137002529
H 1.9698424812 1.5413500811 1.7672136735
H -3.1248714562 1.0245291484 1.4327907923
H -3.5620325184 1.6978974782 -0.1454806541
H -3.7586033928 -0.0534486595 0.1911972135
*
