  12
        -25.89381851
 C         -1.7569614007       -0.3803920913       -0.4976073536
 C         -0.7710476753       -1.0555791299        0.4786417616
 O          0.5769234163       -1.0393168777        0.0283931547
 N          1.2243869831        0.1878441847        0.0133005643
 O          0.5859176708        1.1341694569        0.3485387814
 O          2.3477101906        0.1280735118       -0.3393395353
 O         -2.2297659172        0.8505492812       -0.0383002073
 H         -2.6420604690       -1.0087646621       -0.6114054573
 H         -1.2720322922       -0.2886856237       -1.4812833098
 H         -0.9790574778       -2.1197469392        0.5818834758
 H         -0.8451337365       -0.5704464322        1.4583835098
 H         -1.4821758329        1.4491094031        0.1048309395
  12
        -25.89331573
 C         -1.8666488906        0.2827763866        0.2010119926
 C         -0.7993623248       -0.7187438105        0.6592035129
 O          0.3224098731       -0.7023272772       -0.2102713843
 N          1.3522595028        0.1968509818        0.0912174636
 O          1.2217682859        0.8549770245        1.0673708712
 O          2.2307820100        0.1669904579       -0.6948575998
 O         -2.4822257226       -0.1104638139       -0.9928814389
 H         -1.4131248429        1.2801867947        0.1053870593
 H         -2.6571663674        0.3295243741        0.9519854230
 H         -1.1860841546       -1.7373331237        0.5980911732
 H         -0.4800524593       -0.4953270230        1.6812614270
 H         -1.8061934396       -0.2377759675       -1.6698629325
  12
        -25.89313741
 C         -1.9414023340       -0.5405239031       -0.0700116028
 C         -0.6379671444       -1.2825048327        0.2614243122
 O          0.4334126737       -0.8171920544       -0.5379719308
 N          1.1445163062        0.2891884405       -0.0645032556
 O          1.9566205920        0.6756903902       -0.8250327512
 O          0.8769194903        0.6771131847        1.0240185768
 O         -1.8507724735        0.8399781351        0.1386108420
 H         -2.7505187728       -0.9889706048        0.5234276924
 H         -2.1676260618       -0.6612992546       -1.1317547469
 H         -0.7333476494       -2.3430054200        0.0266146179
 H         -0.3820428432       -1.1589451330        1.3206754784
 H         -1.6141723328        1.0220619444        1.0571513378
  12
        -25.89281419
 C         -2.1250055961       -0.2439353220       -0.5654642370
 C         -0.8735396275        0.5877799463       -0.2714967978
 O          0.1970336406       -0.3295257111       -0.0892479387
 N          1.4682468955        0.2237878497        0.0622024128
 O          1.5380881218        1.4056325025        0.0207201944
 O          2.3132683455       -0.5855112382        0.2125590107
 O         -2.5550117280       -0.9685078783        0.5494100489
 H         -1.9169243466       -0.9066819599       -1.4158683642
 H         -2.9422932909        0.4307187028       -0.8274039066
 H         -1.0114698046        1.1767542878        0.6412879625
 H         -0.6489008609        1.2601280549       -1.1051712567
 H         -1.8571605416       -1.5820487648        0.8089945115
  12
        -25.89276672
 C         -1.6654147793        0.0387267162       -0.5503337418
 C         -0.7719543847       -0.6488533195        0.4984208493
 O          0.5276836542       -0.9063844453        0.0058457375
 N          1.4298751102        0.1610939678        0.0265028172
 O          1.0335892902        1.1858713394        0.4730954574
 O          2.4889298011       -0.1157315100       -0.4104273080
 O         -2.9781872726        0.1799645821       -0.0856989415
 H         -1.7224511150       -0.5895649626       -1.4423080461
 H         -1.2330491598        1.0101997991       -0.8254862790
 H         -1.1778197194       -1.6299205678        0.7500173780
 H         -0.7107255659       -0.0337342026        1.4048761208
 H         -2.9981957679        0.8188930639        0.6360274313
  12
        -25.89263637
 C         -1.9389008629       -0.5789758258       -0.7036958123
 C         -0.6073605104       -0.9193410954       -0.0272293580
 O          0.0630886934        0.2989154182        0.2671247201
 N          1.4518809110        0.3409298289        0.1118884385
 O          1.9051186157        1.4003619611        0.3619106075
 O          1.9857639196       -0.6552150706       -0.2406839909
 O         -2.8487394263        0.0088483578        0.1797552479
 H         -2.4045600975       -1.5027721375       -1.0527215155
 H         -1.7442970349        0.0736097931       -1.5662118873
 H          0.0169079491       -1.5301598846       -0.6861428989
 H         -0.7853824232       -1.4558739063        0.9099966323
 H         -2.4603454441        0.8186526186        0.5323848966
  12
        -25.89214194
 C         -1.6577797660        0.0993484686       -0.5197882722
 C         -0.7712027621       -0.6261836248        0.5091722191
 O          0.5248345338       -0.8845128407        0.0061689438
 N          1.4385789660        0.1763152303        0.0350419650
 O          1.0558161572        1.1977118754        0.4954104720
 O          2.4904995990       -0.1095100693       -0.4138297216
 O         -2.9943782895        0.1423174473       -0.1083590237
 H         -1.5493801175       -0.3988810372       -1.4936565299
 H         -1.3422716472        1.1410611052       -0.6152277998
 H         -1.1765184224       -1.6163379070        0.7319621182
 H         -0.7120159772       -0.0401993122        1.4323740935
 H         -3.3584593379       -0.7501655930       -0.0887646835
  12
        -25.89180610
 C         -1.5934426107       -0.4721802575       -0.8436955346
 C         -0.6183993151       -1.1880827547        0.1032400219
 O          0.1778458667       -0.2830322557        0.8452096059
 N          1.2377172802        0.3210331422        0.1698542046
 O          1.8374981974        1.0873222760        0.8353919824
 O          1.4129749389       -0.0115264768       -0.9550398887
 O         -2.3941959843        0.4702499011       -0.1908810490
 H         -2.1975166306       -1.2415962260       -1.3456783201
 H         -1.0389909453        0.0840677059       -1.6029328592
 H          0.0190378002       -1.8682094571       -0.4715251405
 H         -1.1585844563       -1.7462445800        0.8711797431
 H         -2.8818573516        0.0466594329        0.5248913644
  12
        -25.89124173
 C         -1.6532707189        0.0678583738        0.5263825723
 C         -0.7754746664       -0.5730889489       -0.5529143768
 O          0.5192099668       -0.8886152900       -0.0845221214
 N          1.4341021835        0.1649879538       -0.0061835904
 O          1.0481767407        1.2349125619       -0.3390722789
 O          2.4931839279       -0.1678960665        0.3920638149
 O         -2.9660880860        0.0789670623        0.0217476538
 H         -1.3026230635        1.0868829379        0.7385853200
 H         -1.5857761467       -0.5335226460        1.4447701813
 H         -0.7184777688        0.0882403843       -1.4231369583
 H         -1.2105762999       -1.5279143023       -0.8504824090
 H         -3.5429419296        0.5287878827        0.6476666177
  12
        -25.89095229
 C         -1.9731323877       -0.6563400434       -0.3600084016
 C         -0.7932790747        0.2005022467        0.1183635072
 O          0.3950773055       -0.4660607804       -0.2628039545
 N          1.5916327852        0.1693822935        0.0840756130
 O          1.4920902037        1.1939659896        0.6707499842
 O          2.5515642140       -0.4206278214       -0.2618320273
 O         -3.2010288503       -0.0561923418       -0.0631287441
 H         -1.8902793992       -1.6578990722        0.0809951200
 H         -1.9332533677       -0.7499414206       -1.4467891346
 H         -0.8175361672        0.3213946380        1.2093737137
 H         -0.8355959822        1.1940515708       -0.3421629874
 H         -3.3224800403       -0.0150660582        0.8925316928
  12
        -25.89018664
 C         -1.9621531956       -0.5726313008        0.1964568977
 C         -0.7727128070       -1.0091388025       -0.6591199251
 O          0.4193400049       -0.9228763871        0.0924449524
 N          1.1807087479        0.2511606235       -0.0386891622
 O          0.9138110134        0.9778850909       -0.9304851633
 O          2.0357849955        0.3240845100        0.7703390245
 O         -1.7854656720        0.7917013139        0.4941699346
 H         -1.9850533149       -1.1742414518        1.1148409813
 H         -2.8863930349       -0.7436312292       -0.3712311103
 H         -0.6953359089       -0.3613115411       -1.5385780039
 H         -0.8730355473       -2.0516574923       -0.9628327020
 H         -2.5133849426        1.1050249071        1.0391869039
  12
        -25.88974495
 C         -1.7932653714        0.2974844241        0.2502172603
 C         -0.7860753242       -0.7954833281        0.6105314002
 O          0.3643841147       -0.7807160822       -0.2119678049
 N          1.3223657911        0.1848669230        0.0723744670
 O          1.1045062304        0.9045714735        0.9923044338
 O          2.2520928018        0.1543248350       -0.6539576200
 O         -2.4047749548       -0.0538976099       -0.9662718564
 H         -1.2831870967        1.2668982344        0.1763609917
 H         -2.5334030582        0.3557280210        1.0607523479
 H         -1.2327970629       -1.7721226645        0.4224493253
 H         -0.4928152601       -0.6999267166        1.6608033012
 H         -2.9904507425        0.6546637387       -1.2511110642
  12
        -25.88957607
 C         -1.9610367049       -0.6890896071       -0.3567518030
 C         -0.8000191368        0.1899514446        0.0990710651
 O          0.3996808012       -0.4771407880       -0.2475911864
 N          1.5835020467        0.1800590917        0.0917698217
 O          1.4711556607        1.2270147496        0.6341796338
 O          2.5531766260       -0.4161487789       -0.2179015376
 O         -3.1461251660       -0.0194002696       -0.0055312299
 H         -1.8887988725       -1.6655132325        0.1399571439
 H         -1.8920247201       -0.8415375695       -1.4418152454
 H         -0.8522546725        0.3470506517        1.1814894297
 H         -0.8526532895        1.1656337413       -0.3951799147
 H         -3.9021406750       -0.5493335842       -0.2789568237
  12
        -25.88905484
 C         -1.5659867469       -0.0696478774       -0.7979283753
 C         -0.6890702809       -0.9199889266        0.1321299745
 O          0.2405330710       -0.1562351015        0.8741852752
 N          1.3787838506        0.2604813311        0.1858305336
 O          2.1244402744        0.8910458669        0.8481270657
 O          1.4607278896       -0.0604981202       -0.9540658600
 O         -2.8583214999       -0.0266617679       -0.2420840074
 H         -1.5877474783       -0.5168529743       -1.8000074772
 H         -1.1432419153        0.9412082985       -0.8793217270
 H         -0.1580287494       -1.6946145502       -0.4282720863
 H         -1.3319347752       -1.3756451734        0.8864608756
 H         -3.4228779508        0.5385706822       -0.7794070801
