  12
        -25.89381851
 C         -1.7569614007       -0.3803920913       -0.4976073536
 C         -0.7710476753       -1.0555791299        0.4786417616
 O          0.5769234163       -1.0393168777        0.0283931547
 N          1.2243869831        0.1878441847        0.0133005643
 O          0.5859176708        1.1341694569        0.3485387814
 O          2.3477101906        0.1280735118       -0.3393395353
 O         -2.2297659172        0.8505492812       -0.0383002073
 H         -2.6420604690       -1.0087646621       -0.6114054573
 H         -1.2720322922       -0.2886856237       -1.4812833098
 H         -0.9790574778       -2.1197469392        0.5818834758
 H         -0.8451337365       -0.5704464322        1.4583835098
 H         -1.4821758329        1.4491094031        0.1048309395
