! r2scan-3c def2/J RI DEFGRID2 scfconv6 printgap
%output
    printlevel normal
end
%cpcm
    smd true
    smdsolvent "water"
end
* xyz 0 1
C -3.0656467172 0.7988226085 0.055883642
C -1.5418915257 0.8360487759 0.0616358243
C -0.9607695011 -0.5704710439 -0.0508632807
C 0.5438884049 -0.6331709555 -0.0584265203
O 1.17172508 -1.6675243901 -0.1821655572
O 1.1127950459 0.5550418743 0.0792755721
C 2.5406047792 0.6415182353 0.0894193703
H -3.4369469852 0.2125104735 0.8927742557
H -3.4676799814 1.8049509095 0.1357470017
H -3.4335662017 0.3535151407 -0.8651650193
H -1.188149702 1.3011652559 0.982518638
H -1.1854097172 1.4422187004 -0.7721171811
H -1.3049933628 -1.058178449 -0.9661150106
H -1.3001414351 -1.1930715036 0.7808486541
H 2.8755667723 0.7622775652 1.1191093746
H 2.8045236317 1.5153549544 -0.5007761305
H 2.9715974354 -0.2649804762 -0.3372190063
*
