! r2scan-3c def2/J RI DEFGRID2 scfconv6 printgap
%output
    printlevel normal
end
%cpcm
    smd true
    smdsolvent "water"
end
* xyz 0 1
C 1.8862163246 1.1331449576 0.0440817987
C 1.3858035712 -0.2472097429 -0.3836960916
H 2.0148423434 -0.6003122354 -1.220544144
C -0.0595371887 -0.2323411352 -0.9053569725
C -1.1141740861 0.4286593128 -0.0096266204
C -2.4010212782 0.6348644139 -0.8091188867
C -1.4038797181 -0.4069627777 1.2342152442
O 1.4889180484 -1.186949828 0.6751693595
H 2.960969674 1.1097820885 0.2110414857
H 1.6725807856 1.8614238107 -0.7324397968
H 1.4005264351 1.4404189074 0.9663179479
H -0.0449499857 0.2843854452 -1.8671812273
H -0.3519772104 -1.2693316631 -1.0845328213
H -0.7504586914 1.4118615325 0.3025497998
H -2.7787426626 -0.3190275872 -1.1710014548
H -2.2256527595 1.2825802632 -1.665020033
H -3.1648204874 1.0909875713 -0.1839043821
H -2.1022245989 0.1117010167 1.8875085608
H -1.8406442457 -1.3621777305 0.9500681173
H -0.4892932939 -0.6070505176 1.7837633634
H 2.4019833986 -1.2065346503 0.9907902071
*
