! pbe def2-sv(p) def2/J RI DEFGRID1 loosescf d4 GCP(DFT/SV(P)) printgap
%output
    printlevel normal
end
* xyz 0 1
C -1.8856300629 -1.2253457246 -0.2781564403
C -1.2052990371 -0.099684626 0.493011032
C -0.1444806581 0.6489956195 -0.3227829475
C 0.3604879828 1.8657174153 0.4528783325
C 1.0243680698 -0.2422503771 -0.7706787917
C 1.8227062448 -0.8898048927 0.3692925438
H -2.2890238478 -0.8547874374 -1.2182077337
H -1.1869603374 -2.0288539726 -0.4946534786
H -2.7040019968 -1.6382751486 0.3070750583
H -0.757756264 -0.5066019203 1.4011838853
H -1.9650327855 0.6227928094 0.8016227283
H -0.62972687 1.0138512941 -1.2369732396
H 1.0914544381 2.4146050012 -0.1361768728
H 0.829235734 1.5662271298 1.3866287661
H -0.4639294765 2.5354634783 0.6870530844
H 0.6322626749 -1.0174536246 -1.4298295609
H 1.691893314 0.3744811044 -1.3761733708
H 1.4185925673 -0.6218431924 1.3408143267
H 2.8617761469 -0.5724586451 0.3471588494
H 1.8030709053 -1.9738845233 0.2930205212
*
