! r2scan-3c def2/J RI DEFGRID2 scfconv6 printgap
%output
    printlevel normal
end
%cpcm
    smd true
    smdsolvent "water"
end
* xyz 0 1
C 2.2281777958 -0.245198948 -0.1522361295
O 0.9080541837 -0.2481511877 0.3424112024
C 0.0738206563 0.7019890233 -0.2966325813
C -1.3338698102 0.5647596324 0.2725750076
N -1.9314219579 -0.6801487567 -0.1906365352
H 2.7661752398 -1.005807475 0.4079737131
H 2.6999523318 0.7318740461 0.0003273411
H 2.2455705748 -0.4874130723 -1.2204546048
H 0.4595341191 1.71576766 -0.1170018642
H 0.0541701362 0.5146715281 -1.3785335839
H -1.26144337 0.6325852453 1.37002468
H -1.9466200651 1.3936497567 -0.0897298466
H -2.8148945917 -0.83217008 0.2827452897
H -1.3129177543 -1.4454775423 0.0593218896
*
