  15
  -24.0137614700000       0.500015872922051      !mtd10
 C         -1.8260636011       -0.7571580342       -0.1168981870
 C         -1.8260664376        0.7571340682        0.1168034659
 C         -0.5346278978        1.2924760930       -0.4614078923
 S          0.6791815744       -0.0000133516       -0.0000268279
 C         -0.5346224341       -1.2925068899        0.4613553650
 O          1.4263193734        0.4073332818        1.1580375650
 O          1.4266553678       -0.4072669985       -1.1578661692
 H         -1.8568072608       -0.9573092903       -1.1896366084
 H         -2.6982306063       -1.2213109865        0.3451178183
 H         -2.6982232096        1.2212722789       -0.3452295406
 H         -1.8568042560        0.9572495279        1.1895319412
 H         -0.5456500700        1.3423079300       -1.5458182734
 H         -0.2132523857        2.2353608115       -0.0344138421
 H         -0.2133421006       -2.2354861384        0.0345750722
 H         -0.5456747494       -1.3420590153        1.5457607965
  15
  -24.0137614100000       0.499984127077949      !mtd7
 C         -1.8260262246       -0.5842485118        0.4957290896
 C         -1.8261410525        0.5843575921       -0.4952724187
 C         -0.5346336271        1.3430138124       -0.2828648310
 S          0.6791231102       -0.0000406475       -0.0002197957
 C         -0.5346816304       -1.3430296669        0.2825953144
 O          1.4260577755        0.2586200680        1.1999683388
 O          1.4271464612       -0.2586311119       -1.1997331060
 H         -2.6982655779       -1.2213673622        0.3446188350
 H         -1.8567248630       -0.1938551112        1.5147467571
 H         -1.8575528885        0.1939975783       -1.5142377561
 H         -2.6981439221        1.2216371390       -0.3438243415
 H         -0.2135989899        1.9237153081       -1.1397693531
 H         -0.5453078912        1.9521928409        0.6156384656
 H         -0.5459125548       -1.9525422864       -0.6156739790
 H         -0.2130438188       -1.9234208102        1.1395284141
