  10
  -13.4983248200000       0.246126936666412      !hor
 C          1.5073719108        0.5548555958        0.0239859127
 C          0.8188249967       -0.5696988598       -0.0291581209
 C         -0.6788020924       -0.6667670504        0.0192620489
 O         -1.3546931148        0.5639952721        0.0283177513
 H          2.5824374962        0.5656837966       -0.0191581235
 H          1.0249110896        1.5126603096        0.1331139513
 H          1.3167091598       -1.5256666640       -0.1183100036
 H         -0.9790720620       -1.1764975488        0.9411396031
 H         -1.0187880496       -1.2878830737       -0.8272515259
 H         -1.0535734678        1.0814973360       -0.7269563717
  10
  -13.4983248100000       0.246124332177429      !hor
 C          1.5069276671        0.5560159024       -0.0217010193
 C          0.8189932813       -0.5701370821       -0.0129052244
 C         -0.6792961033       -0.6652372094       -0.0414940694
 O         -1.3546927263        0.5641509750        0.0229244475
 H          2.5825543706        0.5653671024        0.0041977334
 H          1.0228759047        1.5177537873       -0.0753342091
 H          1.3178878639       -1.5291951976        0.0206424094
 H         -1.0055619803       -1.3285430229        0.7779911942
 H         -0.9949618476       -1.1277668767       -0.9829347256
 H         -1.0410006889        1.0428708646        0.7984115593
  10
  -13.4978065500000       0.142225917983485      !hor
 C          1.8572800121        0.1685590533        0.1926034557
 C          0.7100165521       -0.1171743961       -0.3926345009
 C         -0.5608668420       -0.4268492278        0.3424032861
 O         -1.6697705840        0.2851847545       -0.1654249700
 H          2.7489928639        0.3807324573       -0.3719933067
 H          1.9559364460        0.1863874403        1.2660403755
 H          0.6195631987       -0.1292290797       -1.4707246900
 H         -0.4347844856       -0.2354968162        1.4179609655
 H         -0.8162641189       -1.4832838105        0.2067218609
 H         -1.4778490168        1.2282258511       -0.1186795968
  10
  -13.4978065500000       0.142225917983485      !mtd10
 C          1.8547780667        0.1742184708       -0.2116035517
 C          0.7149891175       -0.1282274733        0.3797254151
 C         -0.5652524894       -0.4164871905       -0.3476425470
 O         -1.6675749468        0.2796753352        0.1954813651
 H          2.7537032380        0.3699507238        0.3474064739
 H          1.9396412557        0.2233577280       -1.2852894133
 H          0.6383358506       -0.1715941255        1.4580760865
 H         -0.8188786153       -1.4765773283       -0.2400348924
 H         -0.4532047085       -0.1933161305       -1.4185937208
 H         -1.4760345587        1.2237642262        0.1746874531
  10
  -13.4973695900000       8.957067219305642E-002 !mtd1
 C          1.8578368722        0.1991687632        0.2080146891
 C          0.7172370745       -0.1164098696       -0.3742090979
 C         -0.5595482351       -0.4108362893        0.3561741427
 O         -1.6635032246        0.3083845697       -0.1474657255
 H          2.7537577827        0.3885384746       -0.3583328096
 H          1.9436477198        0.2734600664        1.2792879747
 H          0.6504843368       -0.1815783882       -1.4542527786
 H         -0.4770863612       -0.1303369458        1.4080119711
 H         -0.7604914695       -1.4950984030        0.3002120418
 H         -1.7226007571        0.1593712990       -1.0980174351
  10
  -13.4973695900000       8.957067219305642E-002 !hor
 C          1.8549281999        0.2061816246       -0.2258224556
 C          0.7220454327       -0.1282711259        0.3609299454
 C         -0.5642372538       -0.3994838148       -0.3617289359
 O         -1.6613101969        0.3032609030        0.1789139324
 H          2.7582636541        0.3776084057        0.3344269204
 H          1.9265988631        0.3148768212       -1.2952227922
 H          0.6694138755       -0.2279158230        1.4390885348
 H         -0.7647910965       -1.4850097822       -0.3376241910
 H         -0.4954387169       -0.0856738613       -1.4051068900
 H         -1.7079073608        0.1242952179        1.1249747983
  10
  -13.4956232000000       1.411173975797680E-002 !mtd6
 C          1.5868707626        0.4797262777        0.1202968128
 C          0.7830100485       -0.4947968798       -0.2648630764
 C         -0.6458750612       -0.6249377704        0.2003849168
 O         -1.4346351879        0.5074572857       -0.0943698716
 H          2.5980920582        0.5604719209       -0.2388168965
 H          1.2742851309        1.2419912533        0.8180886237
 H          1.1303294972       -1.2445667807       -0.9608382320
 H         -0.6578974131       -0.8180680722        1.2863251869
 H         -1.1385049043       -1.4600341707       -0.3005486032
 H         -0.9776416413        1.2917193566        0.2286339336
  10
  -13.4951628100000       8.669618043275300E-003 !mtd11
 C          1.8763546902        0.1465564536        0.1811770406
 C          0.6990328150       -0.0143553112       -0.3902280777
 C         -0.5431720175       -0.4380035808        0.3313440841
 O         -1.6359748514        0.3045446854       -0.1708323825
 H          2.7457119745        0.4359175123       -0.3832145215
 H          2.0233382338       -0.0137810999        1.2370421215
 H          0.5554475562        0.1584996106       -1.4469547445
 H         -0.4271719658       -0.2835170316        1.4135162857
 H         -0.7057099698       -1.5151318714        0.1541308732
 H         -2.4397795213        0.0278758110        0.2799237140
  10
  -13.4951628100000       8.669618043275300E-003 !mtd8
 C          1.8739186610        0.1500110356       -0.2020557210
 C          0.7038596475       -0.0212036979        0.3810963590
 C         -0.5473252490       -0.4322289408       -0.3321885192
 O         -1.6336071260        0.3013824313        0.1966291739
 H          2.7502371088        0.4295254818        0.3565201464
 H          2.0076801841        0.0082415002       -1.2622284059
 H          0.5736646255        0.1328991743        1.4424095390
 H         -0.7080507819       -1.5121984242       -0.1718976164
 H         -0.4451228677       -0.2588018875       -1.4128049649
 H         -2.4431546191        0.0320226203       -0.2482479326
  10
  -13.4949694200000       7.065193712985066E-003 !mtd4
 C          1.4843220296        0.5805714110        0.0017127118
 C          0.8273379565       -0.5619570744       -0.0212666087
 C         -0.6671441548       -0.6818090819       -0.0110285408
 O         -1.2772676180        0.5874695662        0.0254409850
 H          2.5597595033        0.6187623088       -0.0068928609
 H          0.9565858729        1.5175667801        0.0297533187
 H          1.3403714958       -1.5141692751       -0.0493899196
 H         -0.9652765448       -1.2806911908        0.8660110221
 H         -0.9810814244       -1.2372011064       -0.9109221524
 H         -2.2324782811        0.4734401022        0.0320370439
  10
  -13.4947564100000       5.639381245563489E-003 !gc
 C          1.9273486281       -0.0886010320        0.0077512031
 C          0.6858138243        0.3527986722       -0.0476581146
 C         -0.5319653756       -0.5175261070        0.0520239675
 O         -1.6803794298        0.2995454979       -0.0193937982
 H          2.7684600328        0.5771800038       -0.0714150984
 H          2.1546296127       -1.1348785448        0.1337962811
 H          0.4611526088        1.4017559623       -0.1728013645
 H         -0.5135091720       -1.0760289961        1.0013670867
 H         -0.5306620313       -1.2532328019       -0.7681443992
 H         -2.4670632540       -0.2509004197        0.0406573372
