! pbe def2-sv(p) def2/J RI DEFGRID1 loosescf d4 GCP(DFT/SV(P)) printgap
%output
    printlevel normal
end
* xyz 0 1
C -2.2113927644 0.6933316393 -0.123154539
C -1.5006713995 -0.5257751344 0.4509266203
C -0.2355751611 -0.9040664671 -0.33358707
C 0.9204974029 0.0381622146 -0.0859725646
O 0.8113370791 1.2481244053 -0.1273489013
C 2.2277205039 -0.6340256618 0.2166394735
H -3.0818563373 0.9418075539 0.4790516203
H -2.5399030676 0.4990293824 -1.1419175539
H -1.5422043114 1.5498295997 -0.1340560948
H -2.1810374777 -1.3793191277 0.4360079858
H -1.2302472585 -0.3313253687 1.4912094092
H 0.0663968725 -1.9196421803 -0.081358755
H -0.4631247519 -0.8669290019 -1.4019541441
H 2.1349575097 -1.1794582171 1.1532459092
H 3.0236204277 0.1009071519 0.300662124
H 2.4607500086 -1.3501138496 -0.5671853232
*
