! r2scan-3c def2/J RI DEFGRID2 scfconv6 printgap
%output
    printlevel normal
end
%cpcm
    smd true
    smdsolvent "water"
end
* xyz 0 1
C 3.58812707 -0.0325540478 -0.8464583911
C 2.5752288737 -0.1113729337 0.2535511482
C 2.9198028717 -0.309583325 1.5162940144
C 1.1335231101 0.0452107343 -0.1787143655
H 1.1070779924 0.1613922187 -1.2665089032
C 0.2916549253 -1.1849322853 0.1790755988
C -1.093742732 -1.06256106 -0.4456937954
C -1.710911838 0.2722749374 -0.1394386322
C -0.9803340311 1.3224884479 0.2680477399
C 0.4920722919 1.2895108689 0.4479499578
C -3.1470253347 0.4036687722 -0.2884823999
O -3.9089601262 -0.4828057359 -0.6324522161
H 4.5971549396 -0.1492913105 -0.4611176423
H 3.4008419463 -0.8136050528 -1.5822745013
H 3.5146008313 0.9274702034 -1.3556661808
H 2.1958178792 -0.3729951667 2.3105575225
H 3.9489344799 -0.4242870127 1.8104548134
H 0.7824408409 -2.090208944 -0.1801751238
H 0.1980866134 -1.2601883084 1.2628429463
H -1.0332882933 -1.1799046277 -1.5317812538
H -1.7598686176 -1.8478213349 -0.0811086985
H -1.4736011388 2.2576819357 0.4982022404
H 0.9303506589 2.1963251185 0.0247841606
H 0.705114233 1.3157453946 1.5212524136
H -3.5453303743 1.4105005897 -0.0597901535
*
