! r2scan-3c def2/J RI DEFGRID2 scfconv6 printgap
%output
    printlevel normal
end
%cpcm
    smd true
    smdsolvent "water"
end
* xyz 0 1
C 2.2294160954 0.970410537 0.8415904541
C 1.4345318562 -0.3159486662 0.640520241
C 0.3371740805 -0.1879770016 -0.4381001766
H 0.4863263697 0.7567211414 -0.9730003681
C 0.4775712646 -1.3257004749 -1.4518054386
C -1.0733345068 -0.1542809496 0.1839376448
C -1.2397703892 1.0480075601 1.1141667081
C -2.169317151 -0.1019792689 -0.8820459356
H 2.984219292 0.8324252323 1.612933475
H 2.7324733208 1.2514486681 -0.0811708627
H 1.580806546 1.7898917288 1.1396888613
H 0.990089269 -0.6209482616 1.5895589718
H 2.1320098096 -1.105015534 0.3527928886
H -0.1811225659 -1.182748619 -2.303273614
H 1.4983736256 -1.3657950679 -1.8256999144
H 0.2437592107 -2.2807545004 -0.9854677451
H -1.2086378352 -1.0706148188 0.7711280403
H -0.5285696716 1.0216916919 1.934252571
H -2.241175297 1.056188944 1.5393583141
H -1.0973072392 1.9734683446 0.5598360947
H -3.1374821576 0.052124881 -0.4105451794
H -2.2191364742 -1.0263632778 -1.4495091822
H -1.9901912206 0.7222890911 -1.5693572637
*
