  22
        -29.45395344
 C         -2.8861912270        0.9645247893       -1.0651197151
 C         -2.9353471534       -0.3858487165       -0.3626051256
 C         -2.0604776228       -0.4133651695        0.8979683851
 C         -0.6058810079       -0.2451234727        0.5632805320
 C          0.1207890607       -1.3055762133        0.0324848017
 C          1.4484908719       -1.1614581514       -0.3136722136
 C          2.0832535213        0.0632671085       -0.1331766985
 C          1.3696244356        1.1290535541        0.3978313041
 C          0.0384054405        0.9705806010        0.7400247399
 O          3.3956700799        0.1710510743       -0.4853774440
 H         -1.8680125497        1.1978623598       -1.3682212614
 H         -3.5166049429        0.9559788439       -1.9513926986
 H         -3.2374156125        1.7527388111       -0.4022854397
 H         -2.5960045650       -1.1635275771       -1.0499290037
 H         -3.9667038218       -0.6122744757       -0.0823222961
 H         -2.2080872973       -1.3688968657        1.4070658563
 H         -2.3803708379        0.3838233322        1.5719379338
 H         -0.3618228836       -2.2620029331       -0.1086609459
 H          2.0138329244       -1.9832298925       -0.7237413671
 H          1.8578214724        2.0844775294        0.5435011517
 H         -0.5036985665        1.8092425185        1.1529007192
 H          3.7072601205        1.0659699648       -0.3052247291
