  22
        -29.45395344
 C         -2.8861912270        0.9645247893       -1.0651197151
 C         -2.9353471534       -0.3858487165       -0.3626051256
 C         -2.0604776228       -0.4133651695        0.8979683851
 C         -0.6058810079       -0.2451234727        0.5632805320
 C          0.1207890607       -1.3055762133        0.0324848017
 C          1.4484908719       -1.1614581514       -0.3136722136
 C          2.0832535213        0.0632671085       -0.1331766985
 C          1.3696244356        1.1290535541        0.3978313041
 C          0.0384054405        0.9705806010        0.7400247399
 O          3.3956700799        0.1710510743       -0.4853774440
 H         -1.8680125497        1.1978623598       -1.3682212614
 H         -3.5166049429        0.9559788439       -1.9513926986
 H         -3.2374156125        1.7527388111       -0.4022854397
 H         -2.5960045650       -1.1635275771       -1.0499290037
 H         -3.9667038218       -0.6122744757       -0.0823222961
 H         -2.2080872973       -1.3688968657        1.4070658563
 H         -2.3803708379        0.3838233322        1.5719379338
 H         -0.3618228836       -2.2620029331       -0.1086609459
 H          2.0138329244       -1.9832298925       -0.7237413671
 H          1.8578214724        2.0844775294        0.5435011517
 H         -0.5036985665        1.8092425185        1.1529007192
 H          3.7072601205        1.0659699648       -0.3052247291
  22
        -29.45374606
 C         -4.2449794342        0.0254151287        0.2326357789
 C         -2.7511007803       -0.0791165276        0.5107167055
 C         -1.9176284367        0.2294310183       -0.7388529120
 C         -0.4503405147        0.1225276281       -0.4389858499
 C          0.2188323956       -1.0844293049       -0.5838851256
 C          1.5607591382       -1.1980222318       -0.2694450371
 C          2.2604606857       -0.0953574207        0.2027880496
 C          1.5998511247        1.1190466475        0.3546864909
 C          0.2604330477        1.2182492793        0.0368661674
 O          3.5835173492       -0.1582513090        0.5242886537
 H         -4.8174349690       -0.1968784343        1.1302541299
 H         -4.5025517833        1.0291781572       -0.0988261225
 H         -4.5392222378       -0.6767438484       -0.5447115359
 H         -2.5113846313       -1.0862394517        0.8591144536
 H         -2.4747253382        0.6186857339        1.3041866941
 H         -2.1537713914        1.2382456647       -1.0840524330
 H         -2.1883114825       -0.4731700059       -1.5299985329
 H         -0.3133907805       -1.9501272073       -0.9516261488
 H          2.0693611745       -2.1460575421       -0.3914613551
 H          2.1537315857        1.9688615270        0.7208286794
 H         -0.2428432213        2.1667963365        0.1570364858
 H          3.9123742607       -1.0519713017        0.3707510073
  22
        -29.45131905
 C         -4.2970390716        0.3636442547       -0.2854104907
 C         -2.8202702177        0.7279455839       -0.1850592981
 C         -1.9659837826       -0.5087383835        0.0832102968
 C         -0.4754682424       -0.2869338917        0.0660169999
 C          0.3644323051       -1.3936293652       -0.0364378036
 C          1.7368769035       -1.2619945086       -0.0395402721
 C          2.3110254310        0.0014086341        0.0587720858
 C          1.4872918741        1.1126742281        0.1606361067
 C          0.1102200780        0.9659824333        0.1658019206
 O          3.6706020624        0.1000460167        0.0503865832
 H         -4.8991241465        1.2518951723       -0.4624904119
 H         -4.4653494072       -0.3326814313       -1.1043625407
 H         -4.6384873367       -0.1036094864        0.6360094676
 H         -2.6891908705        1.4514831061        0.6218993054
 H         -2.4981091684        1.1959174131       -1.1179581029
 H         -2.2069898649       -1.2702608059       -0.6642616497
 H         -2.2423007257       -0.9240352329        1.0585898407
 H         -0.0700326941       -2.3802378093       -0.1146945126
 H          2.3824733615       -2.1221602609       -0.1189011662
 H          1.9241548626        2.1004986042        0.2369291403
 H         -0.5006858730        1.8509580058        0.2484524599
 H          3.9284301312        1.0265446506        0.1240786474
  22
        -29.44907182
 C         -3.5160398675       -0.3770207896       -1.2761744725
 C         -2.9581990671       -0.5694281506        0.1305698454
 C         -2.0206778696        0.5656851146        0.5642301241
 C         -0.5511557283        0.3158059610        0.3403900418
 C         -0.0637917537       -0.4750749304       -0.6931340076
 C          1.2924819764       -0.6665064419       -0.8725059132
 C          2.2032623997       -0.0616110125       -0.0151859431
 C          1.7316952567        0.7333624865        1.0211295057
 C          0.3719739228        0.9135236202        1.1906167641
 O          3.5338380097       -0.2733511615       -0.2228535891
 H         -4.1291226331        0.5211490776       -1.3190037490
 H         -2.7202661020       -0.2753219799       -2.0094630747
 H         -4.1361874322       -1.2257525032       -1.5576928871
 H         -2.4298956476       -1.5224692038        0.1960604200
 H         -3.7993704215       -0.6176688745        0.8258013213
 H         -2.1652835351        0.7644182256        1.6289217444
 H         -2.3029391639        1.4798799835        0.0316671110
 H         -0.7438513940       -0.9595947317       -1.3750334006
 H          1.6656297044       -1.2831121732       -1.6749600124
 H          2.4312085498        1.2080640019        1.6976333954
 H          0.0225868408        1.5333378940        2.0045144651
 H          4.0449015644        0.2029043894        0.4423206959
