  22
  -38.8695053200000       0.500005290974645      !md2
 C         -3.9067120791       -1.5107250586        0.0682710022
 C         -2.9900134242       -1.9683192108       -0.8633944305
 C         -1.7036597170       -1.4613277515       -0.8780273378
 C         -1.3234932345       -0.4812372853        0.0338129445
 C         -2.2476735709       -0.0303048022        0.9709162900
 C         -3.5310061608       -0.5453229417        0.9871683126
 C          0.0521564562        0.0482722269        0.0097349848
 C          1.1255242974       -0.8354465930        0.0743382561
 C          2.4265336089       -0.3648970554        0.0592944984
 C          2.6902592093        0.9933422105       -0.0266536623
 C          1.6325968061        1.8802221031       -0.1050423811
 C          0.3279942476        1.4126606308       -0.0866114285
 Cl        -0.9607647793        2.5564144737       -0.2388888713
 Cl         3.7373287277       -1.4863385903        0.1496139637
 H         -4.9110168761       -1.9072774557        0.0795626154
 H         -3.2781115381       -2.7220523039       -1.5813504491
 H         -0.9897983877       -1.8094993376       -1.6104248300
 H         -1.9536397067        0.7122576408        1.6975218443
 H         -4.2406012028       -0.1911890446        1.7203460921
 H          0.9332720574       -1.8944795369        0.1505896656
 H          3.7070821464        1.3514267972       -0.0369787001
 H          1.8175674499        2.9397257853       -0.1844246433
  22
  -38.8695053000000       0.499994709025355      !mtd8
 C         -3.9063589208       -1.5113037519        0.0685840909
 C         -3.5302613288       -0.5469572770        0.9884473623
 C         -2.2471776468       -0.0313951528        0.9717542956
 C         -1.3235819557       -0.4809051701        0.0334001589
 C         -1.7041577492       -1.4597779688       -0.8795842145
 C         -2.9903775021       -1.9671548063       -0.8646358089
 C          0.0521241108        0.0485308988        0.0094986842
 C          1.1253254032       -0.8353591292        0.0737062353
 C          2.4264630046       -0.3650357654        0.0589824952
 C          2.6902951330        0.9932523497       -0.0261649366
 C          1.6327500165        1.8802974292       -0.1041324995
 C          0.3280533686        1.4129536758       -0.0861870767
 Cl        -0.9605944006        2.5567144430       -0.2377104551
 Cl         3.7369343119       -1.4866857428        0.1484661054
 H         -4.9106244222       -1.9081680193        0.0801152428
 H         -4.2394080605       -0.1941660713        1.7227102282
 H         -1.9527290401        0.7102412273        1.6990954925
 H         -0.9907088137       -1.8067219976       -1.6129691632
 H         -3.2788188734       -2.7200532860       -1.5833140911
 H          0.9328321681       -1.8944142607        0.1493335473
 H          3.7071188712        1.3512755315       -0.0364316454
 H          1.8179477243        2.9398518102       -0.1831252435
