  17
  -22.4862273400000       0.149790755758854      !mtd6
 C          2.7476321799        0.0242080257        0.7280276340
 C          1.9712268361       -0.0022629742       -0.5902532578
 C          0.4952757236       -0.0272954377       -0.3263022451
 C         -0.1972421366       -1.2223496983       -0.1706312653
 C         -1.5520034602       -1.1908721769        0.1139842672
 C         -2.1688808633        0.0446747155        0.2366790469
 N         -1.5247999917        1.1899139348        0.0925265517
 C         -0.2335432393        1.1492376397       -0.1796740759
 H          2.4803488759        0.9056976775        1.3065377616
 H          3.8180614460        0.0442444160        0.5375022633
 H          2.5170607938       -0.8575721464        1.3221098116
 H          2.2591508708       -0.8874758164       -1.1615632866
 H          2.2255083288        0.8832264176       -1.1762713643
 H          0.3206601707       -2.1662182809       -0.2753503710
 H         -2.1157604771       -2.1030607268        0.2370401413
 H         -3.2249406035        0.1262601204        0.4582957809
 H          0.2486817485        2.1128630415       -0.2917405923
  17
  -22.4862273400000       0.149790755758854      !md5
 C          2.7412249028        0.0286561824       -0.7514682760
 C          1.9762349629       -0.0058955799        0.5732999005
 C          0.4980515870       -0.0291771744        0.3219928530
 C         -0.1957867151       -1.2233055507        0.1648173831
 C         -1.5528942405       -1.1902177967       -0.1081436863
 C         -2.1707987619        0.0460438509       -0.2179559638
 N         -1.5255501288        1.1903897128       -0.0720420987
 C         -0.2320163367        1.1481864731        0.1890257221
 H          2.5057058954       -0.8495405021       -1.3489137953
 H          3.8132198472        0.0478110285       -0.5700136466
 H          2.4689507861        0.9136598656       -1.3222204091
 H          2.2357230548        0.8758755660        1.1626297481
 H          2.2690378651       -0.8946869753        1.1365234129
 H          0.3231398104       -2.1677393927        0.2590309012
 H         -2.1175297208       -2.1017382237       -0.2321834381
 H         -3.2285872721        0.1290595130       -0.4306087489
 H          0.2510600789        2.1111609701        0.3023683632
  17
  -22.4862273400000       0.149790755758854      !mtd1
 C          2.7412389643        0.0282882015       -0.7514815362
 C          1.9762429637       -0.0056627377        0.5732900811
 C          0.4980401173       -0.0290247274        0.3220130984
 C         -0.1957460321       -1.2231987735        0.1649162892
 C         -1.5528409984       -1.1902449142       -0.1080419791
 C         -2.1707925627        0.0459756008       -0.2179781569
 N         -1.5256188062        1.1903392363       -0.0721476342
 C         -0.2320612550        1.1482646997        0.1889030957
 H          3.8132489675        0.0475439988       -0.5702542439
 H          2.4688699229        0.9128527837       -1.3228239645
 H          2.5058108913       -0.8502692499       -1.3483102329
 H          2.2358280297        0.8764000697        1.1621201413
 H          2.2690563538       -0.8941483257        1.1369588988
 H          0.3232908303       -2.1675269104        0.2593993718
 H         -2.1174074390       -2.1018183656       -0.2318460680
 H         -3.2286294370        0.1289408456       -0.4304302620
 H          0.2508225210        2.1113140304        0.3026342524
  17
  -22.4862273400000       0.149790755758854      !input
 C          2.7476698754        0.0246854962        0.7279987598
 C          1.9712368620       -0.0025297006       -0.5902578994
 C          0.4952948548       -0.0274660109       -0.3262540300
 C         -0.1973672615       -1.2224412600       -0.1706803021
 C         -1.5521994334       -1.1908617492        0.1137684015
 C         -2.1689027880        0.0447084453        0.2366866823
 N         -1.5246616043        1.1899053082        0.0926834127
 C         -0.2334516167        1.1491644287       -0.1795915777
 H          2.5171173798       -0.8567307753        1.3226249492
 H          2.4805899703        0.9066397307        1.3058899103
 H          3.8180617126        0.0445764321        0.5373549608
 H          2.2593041336       -0.8879868088       -1.1611100841
 H          2.2254552222        0.8826912385       -1.1766994407
 H          0.3203942749       -2.1663651843       -0.2756150638
 H         -2.1158872392       -2.1031155275        0.2365936216
 H         -3.2248836533        0.1266027680        0.4585368109
 H          0.2488954218        2.1127313545       -0.2912878770
  17
  -22.4862273400000       0.149790755758854      !mtd8
 C          2.7471803653        0.0230387649        0.7283418022
 C          1.9712678556       -0.0015881113       -0.5903189318
 C          0.4952832615       -0.0268975166       -0.3266663168
 C         -0.1969291491       -1.2221416801       -0.1705367785
 C         -1.5516027224       -1.1909244562        0.1143373213
 C         -2.1687191131        0.0445539711        0.2370194515
 N         -1.5249958306        1.1898741143        0.0923233131
 C         -0.2337797551        1.1494654066       -0.1803239878
 H          3.8176414064        0.0440928508        0.5382882218
 H          2.5169519166       -0.8598321905        1.3209682569
 H          2.4792750471        0.9034594400        1.3081934413
 H          2.2594100123       -0.8860193839       -1.1627743516
 H          2.2257373137        0.8847646220       -1.1750312645
 H          0.3213187016       -2.1658693895       -0.2750992944
 H         -2.1151498786       -2.1032203639        0.2377515172
 H         -3.2246351737        0.1259742421        0.4593575619
 H          0.2481345316        2.1131866663       -0.2925371612
  17
  -22.4862273000000       0.149784415580875      !mtd12
 C          2.7411098903        0.0308082920       -0.7514016758
 C          1.9762633672       -0.0071052167        0.5733195918
 C          0.4980960446       -0.0300760911        0.3218800227
 C         -0.1961523670       -1.2238060689        0.1640542776
 C         -1.5533602653       -1.1900525570       -0.1086394246
 C         -2.1708048699        0.0464347335       -0.2178759418
 N         -1.5250776220        1.1904882009       -0.0714390306
 C         -0.2316043801        1.1476514694        0.1895681337
 H          2.4676977726        0.9164467263       -1.3206188564
 H          2.5067935634       -0.8466418987       -1.3503843243
 H          3.8130827166        0.0510558068       -0.5699211117
 H          2.2354932515        0.8734062196        1.1646265555
 H          2.2692460517       -0.8970763027        1.1345353370
 H          0.3222649243       -2.1685198685        0.2579736344
 H         -2.1182363702       -2.1013450896       -0.2331400611
 H         -3.2285450340        0.1300166739       -0.4305951663
 H          0.2519339200        2.1103447855        0.3036558638
  17
  -22.4843659700000       2.089578003808724E-002 !mtd3
 C          2.8312110386        0.6647345713        0.3673731309
 C          1.9797723099       -0.4029155817       -0.3109802027
 C          0.4957179205       -0.2228817218       -0.1474279504
 C         -0.3537183222       -1.3209526475       -0.2553468555
 C         -1.7201211341       -1.1485827093       -0.1244363296
 C         -2.1985432477        0.1307902177        0.1148945734
 N         -1.4085100793        1.1836679275        0.2204083385
 C         -0.1048461107        1.0093965421        0.0919430122
 H          2.7103655127        1.6307247407       -0.1158371391
 H          3.8817360611        0.3891409693        0.3090898202
 H          2.5583659351        0.7626480795        1.4157122882
 H          2.2520771579       -1.3854209105        0.0845373778
 H          2.2075710726       -0.4154191586       -1.3823610976
 H          0.0583087384       -2.3041678430       -0.4403701165
 H         -2.3965194969       -1.9859348831       -0.2038507436
 H         -3.2571728830        0.3250050615        0.2274161581
 H          0.4828217073        1.9117391683        0.1884869194
  17
  -22.4843497500000       2.054018694981368E-002 !mtd11
 C          2.8293603135        0.7616729006       -0.1372828780
 C          1.9831016835       -0.4822548424        0.1088289382
 C          0.4971239698       -0.2584402505        0.0478246138
 C         -0.3558933990       -1.3340342368       -0.1865158648
 C         -1.7236757123       -1.1311166702       -0.2248682911
 C         -2.2002306578        0.1560979665       -0.0272739035
 N         -1.4070253505        1.1877586996        0.1961823816
 C         -0.1017083681        0.9838230179        0.2329519581
 H          3.8801447216        0.4863694500       -0.1942123202
 H          2.7141651048        1.4818172892        0.6687567378
 H          2.5470081450        1.2372295683       -1.0739011617
 H          2.2272709518       -0.8928238241        1.0944730175
 H          2.2446594702       -1.2468745181       -0.6281737020
 H          0.0547491588       -2.3234327536       -0.3382265266
 H         -2.4026431908       -1.9503607664       -0.4060604068
 H         -3.2598924107        0.3742553607       -0.0490912973
 H          0.4880782458        1.8702249697        0.4206385097
  17
  -22.4843417100000       2.036617465807144E-002 !mtd6
 C          2.8313502038        0.7659009054       -0.1100335904
 C          1.9830513793       -0.4849742652        0.0870242366
 C          0.4969392225       -0.2587090055        0.0368887477
 C         -0.3578252178       -1.3340481440       -0.1933555075
 C         -1.7256721286       -1.1311425501       -0.2222199599
 C         -2.2007944300        0.1559398111       -0.0191487317
 N         -1.4060550165        1.1871698518        0.2000198620
 C         -0.1003098164        0.9832882955        0.2274215999
 H          2.7111906987        1.4569761478        0.7203460614
 H          2.5561140317        1.2746227484       -1.0311607704
 H          3.8821625471        0.4913206803       -0.1697940926
 H          2.2274378388       -0.9346303448        1.0554938994
 H          2.2431042248       -1.2204670860       -0.6796685009
 H          0.0522448334       -2.3230570587       -0.3494509588
 H         -2.4060242530       -1.9500048828       -0.3998807236
 H         -3.2606692203        0.3740767288       -0.0321644119
 H          0.4904469546        1.8697072332        0.4116172467
  17
  -22.4843194700000       1.989246797572964E-002 !mtd2
 C          2.8634188494       -0.7326800717       -0.1142027858
 C          1.9748713367        0.4894487344        0.0875496045
 C          0.4972455729        0.2123825623        0.0458962627
 C         -0.0597009774       -1.0460168659        0.2359996628
 C         -1.4374720762       -1.1940248467        0.1937257908
 C         -2.2172739259       -0.0730072764       -0.0355991462
 N         -1.7042812327        1.1326348359       -0.2172935930
 C         -0.3927273728        1.2627430547       -0.1779531196
 H          2.6015524613       -1.2493355214       -1.0351761404
 H          2.7716288922       -1.4279735750        0.7168377651
 H          3.9043361007       -0.4239096906       -0.1788101673
 H          2.2045859393        1.2328781488       -0.6805831527
 H          2.2095359971        0.9477648294        1.0541264864
 H          0.5659119227       -1.9074984718        0.4146134702
 H         -1.8928846955       -2.1622161493        0.3365992976
 H         -3.2967586953       -0.1346268353       -0.0776512846
 H         -0.0218645780        2.2687538135       -0.3356677933
  17
  -22.4843038900000       1.956719600315099E-002 !mtd5
 C          2.8691818320       -0.7398633225       -0.0121571367
 C          1.9744860507        0.4933250804        0.0034050734
 C          0.4969204894        0.2114427914        0.0066586265
 C         -0.0558850536       -1.0451391561        0.2167684940
 C         -1.4348770301       -1.1915834229        0.2094405490
 C         -2.2191157151       -0.0715433900       -0.0071482758
 N         -1.7096255254        1.1328587128       -0.2084674645
 C         -0.3977490049        1.2617498825       -0.2012645644
 H          3.9113282006       -0.4362149876       -0.0807841847
 H          2.6409342112       -1.3710626359       -0.8682964686
 H          2.7483864667       -1.3230052149        0.8978902491
 H          2.2006029338        1.1130556519       -0.8690964314
 H          2.2079502760        1.0947684383        0.8880908801
 H          0.5721326503       -1.9069186170        0.3843625624
 H         -1.8873025195       -2.1585747334        0.3691123227
 H         -3.2993078336       -0.1322702050       -0.0225392327
 H         -0.0292313313        2.2663916065       -0.3721841729
