! pbe def2-sv(p) def2/J RI DEFGRID1 loosescf d4 GCP(DFT/SV(P)) printgap
%output
    printlevel normal
end
* xyz 0 1
C -1.3605626834 -0.073020311 -0.5445823056
C -0.0149337317 0.019894824 0.1795274506
C 1.0894795936 -0.7364729509 -0.5692007916
O 2.2811665238 -0.5812177019 0.171743211
O 0.3246052592 1.3835367997 0.3040444196
O -2.3921616334 -0.0637028845 0.4158161867
H -1.3984263326 -0.9997856788 -1.1320952526
H -1.4386404237 0.7884827289 -1.2167410261
H -0.1330168591 -0.4259366121 1.1787083515
H 1.1978079738 -0.3060300868 -1.5727104699
H 0.81446484 -1.7940202612 -0.6508043252
H 3.0061673656 -1.0333620548 -0.280001846
H 1.215199773 1.4324438134 0.6838148209
H -3.2460580593 0.0228323975 -0.0302214469
*
