  9
  -14.2976649100000        1.00000000000000      !md2
 C         -0.6668906298        0.9570416895        0.0000722294
 C          0.6969894352        0.9224301441        0.0000124782
 N          1.1315000673       -0.3648717004       -0.0000177072
 C          0.0589521702       -1.1015996056        0.0000199179
 N         -1.0681853247       -0.3493960046       -0.0000533251
 H         -1.3626459421        1.7704014527       -0.0002381828
 H          1.3920690089        1.7373314665       -0.0001942227
 H          0.0491816707       -2.1732316171        0.0001149936
 H         -2.0196920212       -0.6781761365        0.0000577339
