! r2scan-3c def2/J RI DEFGRID2 scfconv6 printgap
%output
    printlevel normal
end
%cpcm
    smd true
    smdsolvent "water"
end
* xyz 0 1
C 4.1951448189 -0.1266865992 -0.1171952064
N 2.7712132672 -0.3554186404 -0.2356070394
C 2.4098005912 -1.5831853666 -0.9059243453
C 1.903245589 0.5660177571 0.2059027161
O 2.2742760302 1.6522453024 0.6679130533
C 0.4475818242 0.2427358858 0.1401215455
C -0.4131262575 1.1221660107 -0.5018501687
C -1.778251891 0.8973843449 -0.5253234492
C -2.3069071539 -0.2122827937 0.1265898027
C -1.4462225534 -1.0844784619 0.7981001144
C -0.0872492182 -0.8608944447 0.8031129662
O -3.6278296702 -0.5317086807 0.1755780592
C -4.5596650639 0.3155405875 -0.4717692614
H 4.6487565376 -0.0410225967 -1.1056514027
H 4.6566096096 -0.9548987046 0.4208704134
H 4.3500393282 0.7999516002 0.4316325759
H 1.355858456 -1.5804678476 -1.1670096931
H 2.6221627663 -2.4417840855 -0.2658759884
H 3.0027907079 -1.6739960958 -1.816892967
H -0.0032034166 1.9926119811 -0.9922220673
H -2.4148359244 1.5952253245 -1.043906418
H -1.8746861827 -1.9303339956 1.3111090102
H 0.5628637077 -1.5350310521 1.3386120294
H -5.5308393678 -0.1400513168 -0.2932187691
H -4.3677336174 0.364328036 -1.5464598354
H -4.5409930816 1.3213256051 -0.0447943755
*
