  19
  -26.2889024600000       7.873723951264083E-002 !mtd14
 C         -3.1817697460       -0.0084832124        0.8418782971
 C         -2.4793599192        0.0124108855       -0.5172110811
 C         -0.9872533008        0.0072847091       -0.3407023231
 C         -0.2875834775       -1.1891799026       -0.2364484214
 C          1.0773335038       -1.2041075476       -0.0323427929
 C          1.7755514171       -0.0060474546        0.0749528850
 C          1.0873648216        1.1958965746       -0.0255306095
 C         -0.2804807568        1.1960805107       -0.2297848796
 O          3.1228731628       -0.0567603178        0.2746562924
 H         -2.8991085732       -0.8986903479        1.3992276692
 H         -4.2619243867       -0.0062796008        0.7137859421
 H         -2.8990643730        0.8639923841        1.4267105353
 H         -2.7843874635        0.9058701759       -1.0658761482
 H         -2.7861887527       -0.8627505895       -1.0935043633
 H         -0.8203397911       -2.1255430200       -0.3199067961
 H          1.6225720264       -2.1312853729        0.0459117438
 H          1.6249946203        2.1322149139        0.0556036524
 H         -0.8037038677        2.1385645105       -0.3072131813
 H          3.4766522818        0.8389857007        0.3289580375
  19
  -26.2889024200000       7.873390680956717E-002 !md2
 C         -3.1810135797        0.0366174125        0.8426133513
 C         -2.4793792187        0.0239420331       -0.5169986348
 C         -0.9872687180        0.0088961478       -0.3410335246
 C         -0.2944983534       -1.1896278812       -0.2480426232
 C          1.0731991191       -1.2085226683       -0.0436792379
 C          1.7754023125       -0.0163718461        0.0749667174
 C          1.0913288843        1.1912721373       -0.0145883788
 C         -0.2736200901        1.1954063891       -0.2189770829
 O          3.1231355699        0.0155241113        0.2757238556
 H         -2.9077206108       -0.8458140971        1.4169526635
 H         -4.2611749154        0.0479414564        0.7151559792
 H         -2.8882472143        0.9169757815        1.4102665919
 H         -2.7758276502        0.9097342122       -1.0824646884
 H         -2.7952972409       -0.8590981614       -1.0763271606
 H         -0.8287233563       -2.1246490806       -0.3395619795
 H          1.5997882428       -2.1522060926        0.0234649077
 H          1.6473807385        2.1107203173        0.0774937278
 H         -0.7953438824        2.1391014978       -0.2884553574
 H          3.4663573123       -0.8850164642        0.3167860006
  19
  -26.2889024200000       7.873390680956717E-002 !gc
 C         -3.1815687053        0.0371718856        0.8422638743
 C         -2.4792933535        0.0237565543       -0.5170288068
 C         -0.9872389502        0.0086771818       -0.3406611744
 C         -0.2943148897       -1.1898515649       -0.2478735062
 C          1.0733879688       -1.2085655190       -0.0437563286
 C          1.7754761663       -0.0162978791        0.0749299042
 C          1.0913005288        1.1912860244       -0.0143163435
 C         -0.2737040190        1.1952104810       -0.2185455870
 O          3.1232922811        0.0156163214        0.2753061990
 H         -4.2616824531        0.0489565155        0.7141939700
 H         -2.8886245272        0.9175032475        1.4098324667
 H         -2.9090755157       -0.8453310904        1.4168599268
 H         -2.7753962807        0.9093683630       -1.0829502898
 H         -2.7951681769       -0.8593837014       -1.0762238238
 H         -0.8284717721       -2.1248773561       -0.3395141175
 H          1.6003009649       -2.1520692494        0.0229141640
 H          1.6471400364        2.1108653782        0.0777155109
 H         -0.7956090128        2.1387883940       -0.2877149208
 H          3.4665490657       -0.8849188250        0.3158728107
  19
  -26.2889024200000       7.873390680956717E-002 !md3
 C         -3.1821164982       -0.0063947528        0.8417337204
 C         -2.4793224536        0.0114514055       -0.5171888390
 C         -0.9872148491        0.0065449952       -0.3405828508
 C         -0.2871228204       -1.1897032086       -0.2369064678
 C          1.0778246501       -1.2042603375       -0.0329358228
 C          1.7756213139       -0.0060203776        0.0749049564
 C          1.0869763110        1.1957410827       -0.0248665205
 C         -0.2808645451        1.1955386547       -0.2291009302
 O          3.1229640102       -0.0562918612        0.2744815879
 H         -2.8994229659        0.8673683288        1.4246825941
 H         -2.8997415219       -0.8953763248        1.4011099978
 H         -4.2622377657       -0.0042920647        0.7133516019
 H         -2.7841091437        0.9039004774       -1.0676773443
 H         -2.7862405216       -0.8647623758       -1.0918899593
 H         -0.8195714210       -2.1262126854       -0.3207434650
 H          1.6233459870       -2.1312708561        0.0448446102
 H          1.6242697230        2.1322651933        0.0568783352
 H         -0.8044625604        2.1378925496       -0.3058411253
 H          3.4764852186        0.8395358705        0.3288215189
  19
  -26.2889024100000       7.873307365576608E-002 !gc
 C         -3.1819146913        0.0441603280       -0.8412283859
 C         -2.4792124550        0.0188922822        0.5175980959
 C         -0.9871869048        0.0055818299        0.3407403673
 C         -0.2951208327       -1.1919297369        0.2305492736
 C          1.0725699520       -1.2087013310        0.0260857961
 C          1.7755502496       -0.0154352567       -0.0752856095
 C          1.0921699269        1.1911816668        0.0313188172
 C         -0.2728256789        1.1932010279        0.2356065715
 O          3.1233776865        0.0184173627       -0.2750014674
 H         -2.9109552702       -0.8341037689       -1.4229474580
 H         -2.8879107239        0.9284507908       -1.4019496363
 H         -4.2619059186        0.0565324619       -0.7126580765
 H         -2.7946819967       -0.8692976475        1.0688403212
 H         -2.7753096879        0.8991781327        1.0916475103
 H         -0.8298976774       -2.1279133107        0.3083764621
 H          1.5986622306       -2.1516234984       -0.0545434670
 H          1.6486534687        2.1115852763       -0.0474003705
 H         -0.7939839012        2.1361207500        0.3184403427
 H          3.4661169827       -0.8816238336       -0.3283591253
  19
  -26.2889023900000       7.873140737490883E-002 !mtd2
 C         -3.1820482090       -0.0082408233        0.8416799663
 C         -2.4792992090        0.0120891089       -0.5173163450
 C         -0.9872620021        0.0073351679       -0.3404153907
 C         -0.2875499936       -1.1891313117       -0.2362853695
 C          1.0773996386       -1.2041133232       -0.0323660212
 C          1.7756128575       -0.0060537046        0.0749114542
 C          1.0873852768        1.1959104256       -0.0254405669
 C         -0.2804844142        1.1961439725       -0.2294796823
 O          3.1229494946       -0.0567746576        0.2744237514
 H         -4.2621419634       -0.0083376101        0.7131095008
 H         -2.9012566795        0.8654117597        1.4255977524
 H         -2.8977584992       -0.8973507730        1.3998332092
 H         -2.7845691325        0.9051262088       -1.0665668793
 H         -2.7858717833       -0.8635606719       -1.0931530443
 H         -0.8203162267       -2.1254708390       -0.3198135905
 H          1.6225552503       -2.1313236821        0.0457244067
 H          1.6251484746        2.1321707722        0.0555617974
 H         -0.8036727348        2.1386427378       -0.3070527950
 H          3.4767524512        0.8389861526        0.3284641033
  19
  -26.2889023800000       7.873057424755649E-002 !mtd1
 C         -3.1822930076       -0.0146417621       -0.8408624030
 C         -2.4792012669        0.0162820341        0.5176985891
 C         -0.9871577516        0.0098253242        0.3406107023
 C         -0.2873788837       -1.1873632670        0.2459653318
 C          1.0775392621       -1.2038610586        0.0418889984
 C          1.7756103909       -0.0066674338       -0.0751860463
 C          1.0872749662        1.1959906906        0.0155585198
 C         -0.2805158149        1.1977532376        0.2200546666
 O          3.1228909195       -0.0588169137       -0.2747753160
 H         -2.9009967563        0.8544415346       -1.4313455535
 H         -4.2623784817       -0.0129283876       -0.7121889156
 H         -2.8988379097       -0.9079614183       -1.3927678540
 H         -2.7857159894       -0.8548866140        1.1002205708
 H         -2.7840311377        0.9135650269        1.0602799102
 H         -0.8200090299       -2.1230628400        0.3372337420
 H          1.6227597781       -2.1316275579       -0.0288611424
 H          1.6248348509        2.1316416230       -0.0736661071
 H         -0.8038696420        2.1407953031        0.2895037690
 H          3.4765662058        0.8364779919       -0.3366444812
  19
  -26.2889023600000       7.872890801959589E-002 !md3
 C         -3.1822817094       -0.0194802510       -0.8409041948
 C         -2.4792168983        0.0187344255        0.5175445814
 C         -0.9871419705        0.0116090715        0.3407176058
 C         -0.2880288011       -1.1861172044        0.2475616419
 C          1.0768431463       -1.2035578418        0.0432611916
 C          1.7755690491       -0.0068604205       -0.0752951423
 C          1.0879725366        1.1962701110        0.0142325308
 C         -0.2798545973        1.1990142056        0.2185884202
 O          3.1228411050       -0.0600684851       -0.2748400925
 H         -2.8989598561       -0.9161521152       -1.3874876135
 H         -2.9006843531        0.8461815164       -1.4364848267
 H         -4.2623750762       -0.0167858852       -0.7124033045
 H         -2.7857273899       -0.8492614363        1.1049269547
 H         -2.7842137681        0.9189693759        1.0549818362
 H         -0.8212300929       -2.1213730512        0.3398362487
 H          1.6217192746       -2.1316339004       -0.0261572529
 H          1.6260476199        2.1316017588       -0.0759784346
 H         -0.8026607369        2.1424743931        0.2870175654
 H          3.4774012649        0.8349602321       -0.3352000882
  19
  -26.2889023500000       7.872807491869147E-002 !hor
 C         -3.1817021273        0.0303814155        0.8420437334
 C         -2.4792219488        0.0268943546       -0.5171069471
 C         -0.9872142892        0.0110260365       -0.3406012127
 C         -0.2956832782       -1.1880773976       -0.2457845841
 C          1.0719859120       -1.2080476120       -0.0416399094
 C          1.7755164994       -0.0164748056        0.0748804161
 C          1.0927065110        1.1916827966       -0.0161971854
 C         -0.2723274269        1.1969064897       -0.2203006361
 O          3.1233624573        0.0141500413        0.2749892392
 H         -2.8882896790        0.9062195040        1.4162831456
 H         -2.9098476569       -0.8564815815        1.4100958096
 H         -4.2617384279        0.0438642788        0.7138658855
 H         -2.7756744889        0.9161674354       -1.0769056163
 H         -2.7946566211       -0.8524481601       -1.0823885566
 H         -0.8308526295       -2.1226898170       -0.3359290229
 H          1.5976734332       -2.1521183726        0.0269064553
 H          1.6496079576        2.1107549087        0.0743811468
 H         -0.7930948652        2.1410500672       -0.2908992974
 H          3.4655413162       -0.8867487704        0.3172508696
  19
  -26.2889023000000       7.872390954670019E-002 !gc
 C         -3.1815177136        0.0402560812       -0.8416599207
 C         -2.4792384015        0.0209686242        0.5175246731
 C         -0.9872020153        0.0069656264        0.3409759568
 C         -0.2956667018       -1.1909666284        0.2319788861
 C          1.0719934808       -1.2085411552        0.0273804847
 C          1.7754658434       -0.0156397982       -0.0752273107
 C          1.0926463532        1.1913887427        0.0303310101
 C         -0.2723390685        1.1942073794        0.2346504120
 O          3.1232634164        0.0174892791       -0.2754074380
 H         -2.8860874524        0.9214016777       -1.4065997191
 H         -4.2615452793        0.0547724653       -0.7135407946
 H         -2.9115361542       -0.8411935593       -1.4188930046
 H         -2.7949298898       -0.8647684517        1.0727012256
 H         -2.7755236350        0.9039201763        1.0874586888
 H         -0.8308656088       -2.1265609545        0.3109530320
 H          1.5976381826       -2.1517584787       -0.0523846296
 H          1.6496043313        2.1114488931       -0.0493997028
 H         -0.7930763423        2.1374465273        0.3166610145
 H          3.4655860758       -0.8827869379       -0.3278490845
  19
  -26.2889022900000       7.872307649868908E-002 !mtd13
 C         -3.1802931892       -0.0165884538       -0.8425026452
 C         -2.4795196467        0.0174298743        0.5172097214
 C         -0.9873432936        0.0104631211        0.3416731682
 C         -0.2877748741       -1.1869150620        0.2476797617
 C          1.0770498877       -1.2038134323        0.0430720782
 C          1.7752519589       -0.0068024351       -0.0752823073
 C          1.0872852147        1.1960623412        0.0155508602
 C         -0.2804328582        1.1981750158        0.2205676770
 O          3.1223507869       -0.0591963591       -0.2760671693
 H         -4.2606130061       -0.0112464896       -0.7159131774
 H         -2.8983953928       -0.9129920503       -1.3902081443
 H         -2.8953656170        0.8492808531       -1.4360816220
 H         -2.7870934835       -0.8519678286        1.1018116172
 H         -2.7848566769        0.9163454558        1.0567578989
 H         -0.8206004651       -2.1224703683        0.3395888340
 H          1.6220874572       -2.1317100945       -0.0273792191
 H          1.6249516085        2.1315744807       -0.0741070921
 H         -0.8034517961        2.1414173331        0.2899430933
 H          3.4761183731        0.8359858709       -0.3388346064
  19
  -26.2889019400000       7.869392537359250E-002 !gc
 C         -3.1814126713        0.0452705148       -0.8416460064
 C         -2.4793258360        0.0184591342        0.5175537036
 C         -0.9872748144        0.0050424860        0.3409338752
 C         -0.2950136522       -1.1923120371        0.2304865246
 C          1.0726596456       -1.2088041056        0.0259745449
 C          1.7755123554       -0.0153997919       -0.0752202473
 C          1.0919827657        1.1910916386        0.0318781287
 C         -0.2730186833        1.1928323299        0.2362043760
 O          3.1232468990        0.0187939000       -0.2753911478
 H         -4.2613925942        0.0637001205       -0.7134012411
 H         -2.9149250019       -0.8354272872       -1.4220105405
 H         -2.8825250554        0.9274321462       -1.4034932803
 H         -2.7953123673       -0.8700613191        1.0681371790
 H         -2.7753022468        0.8986559146        1.0919868845
 H         -0.8296481506       -2.1283944185        0.3079559279
 H          1.5987851609       -2.1516778132       -0.0553068590
 H          1.6482898036        2.1116708113       -0.0463581031
 H         -0.7941515513        2.1357487130        0.3196532199
 H          3.4660977202       -0.8811350417       -0.3308257297
  19
  -26.2867408900000       7.994501582058109E-003 !gc
 C         -3.3105437361        0.7151637644        0.3837267350
 C         -2.4752898948       -0.3945009242       -0.2445607926
 C         -0.9829301931       -0.2143871589       -0.1313895855
 C         -0.1559851531       -1.3220111165       -0.3012997496
 C          1.2169197290       -1.2165308707       -0.2269292462
 C          1.8035175020        0.0192280305        0.0260429069
 C          0.9921432901        1.1313034428        0.1968196696
 C         -0.3849165655        1.0119982116        0.1160850369
 O          3.1629326172        0.0909532683        0.0980430266
 H         -3.0203774683        0.8723689953        1.4202052413
 H         -4.3634691706        0.4426402768        0.3595624179
 H         -3.1945444698        1.6502794877       -0.1586897992
 H         -2.7340238780       -0.4772694761       -1.3056783072
 H         -2.7406451088       -1.3468680493        0.2223343265
 H         -0.6000598568       -2.2878845337       -0.4964321149
 H          1.8533049664       -2.0771081419       -0.3587098573
 H          1.4389542442        2.0976866586        0.3942082180
 H         -0.9866972823        1.8966301173        0.2517105325
 H          3.4300702560        1.0001455935        0.2781241896
  19
  -26.2867387700000       7.976587034557937E-003 !gc
 C         -3.3204061230       -0.7676128793       -0.0962746857
 C         -2.4698984597        0.4856633517        0.0753956442
 C         -0.9800356747        0.2585189521        0.0400830371
 C         -0.3968673363       -0.9804215766        0.2583640588
 C          0.9786882994       -1.1365537191        0.2307935566
 C          1.8033055180       -0.0482239339       -0.0133872656
 C          1.2315758016        1.2013549453       -0.2302727588
 C         -0.1398334537        1.3423215218       -0.2032188765
 O          3.1616863781       -0.1568303669       -0.0504600492
 H         -3.2108970910       -1.4370247076        0.7534345957
 H         -3.0384197303       -1.3005494290       -1.0016470351
 H         -4.3702179198       -0.4926951006       -0.1727214397
 H         -2.7243457293        0.9606610824        1.0290328705
 H         -2.7252635993        1.1990681195       -0.7129086646
 H         -1.0090191765       -1.8467849898        0.4528061344
 H          1.4139293075       -2.1133886338        0.4007985379
 H          1.8780350830        2.0434072843       -0.4200082241
 H         -0.5724302229        2.3177921675       -0.3750248172
 H          3.4178614321       -1.0720015030        0.1145599788
  19
  -26.2867353500000       7.947771728970036E-003 !mtd4
 C         -3.3150032302       -0.7938724698       -0.0828722270
 C         -2.4735465336        0.4670550170        0.0759364439
 C         -0.9819878442        0.2507439865        0.0383031868
 C         -0.3874699512       -0.9844586134        0.2617826889
 C          0.9861485121       -1.1334113117        0.2347205139
 C          1.8033645351       -0.0381873029       -0.0151213667
 C          1.2225052978        1.2038777110       -0.2376931914
 C         -0.1522627137        1.3382285642       -0.2110131336
 O          3.1539055230       -0.2232222949       -0.0335092547
 H         -3.1971936821       -1.4553198671        0.7718735015
 H         -3.0320864616       -1.3321376751       -0.9847086805
 H         -4.3670512932       -0.5273113739       -0.1576940311
 H         -2.7287099402        0.9474234460        1.0267484895
 H         -2.7371066883        1.1724388380       -0.7170351353
 H         -0.9949863464       -1.8528920263        0.4602879597
 H          1.4446686862       -2.0944353869        0.4061844231
 H          1.8490752425        2.0647792520       -0.4339976263
 H         -0.5899085341        2.3108456949       -0.3876884737
 H          3.5930131573        0.6161041688       -0.2152349170
  19
  -26.2867333200000       7.930717162458925E-003 !gc
 C         -3.3143824418       -0.7949526173       -0.0795985579
 C         -2.4736903789        0.4673175940        0.0720467831
 C         -0.9820312381        0.2511318598        0.0376241219
 C         -0.3877518697       -0.9839747879        0.2622180309
 C          0.9858672052       -1.1331013049        0.2357261765
 C          1.8032633466       -0.0381675758       -0.0146813490
 C          1.2226832735        1.2040177671       -0.2373253714
 C         -0.1520723389        1.3385829662       -0.2111574661
 O          3.1536970206       -0.2237259295       -0.0339930362
 H         -4.3666102934       -0.5294734444       -0.1568764619
 H         -3.1966499490       -1.4510611392        0.7792461099
 H         -3.0305059581       -1.3384286416       -0.9780222416
 H         -2.7304005539        0.9541055666        1.0191527273
 H         -2.7363558611        1.1672453151       -0.7260983985
 H         -0.9953885156       -1.8522577267        0.4609114007
 H          1.4442260814       -2.0941358308        0.4075455054
 H          1.8495154848        2.0647012283       -0.4337585619
 H         -0.5895606654        2.3112097998       -0.3880481803
 H          3.5931157380        0.6151178211       -0.2172829810
  19
  -26.2867324700000       7.923586962238693E-003 !gc
 C         -3.3145337477       -0.7950982466       -0.0776118177
 C         -2.4736862120        0.4674365369        0.0707517337
 C         -0.9820226545        0.2511126958        0.0369220410
 C         -0.3878077861       -0.9839760926        0.2617325473
 C          0.9858302594       -1.1330822332        0.2356751874
 C          1.8032947723       -0.0381598924       -0.0145183083
 C          1.2227702280        1.2040125592       -0.2374203541
 C         -0.1519872488        1.3385633212       -0.2116710651
 O          3.1537378842       -0.2236957718       -0.0333900502
 H         -3.0312649710       -1.3405855882       -0.9750063850
 H         -4.3667905237       -0.5297008112       -0.1548371258
 H         -3.1963317638       -1.4492889637        0.7826385543
 H         -2.7303357038        0.9567147429        1.0165875259
 H         -2.7362822074        1.1653323612       -0.7292035361
 H         -0.9954678569       -1.8522784939        0.4602463614
 H          1.4441358910       -2.0941088889        0.4076754238
 H          1.8496563149        2.0646862960       -0.4337245238
 H         -0.5894474133        2.3111700038       -0.3887471017
 H          3.5931981179        0.6151428394       -0.2166057363
  19
  -26.2867161000000       7.787511439077941E-003 !gc
 C         -3.3264687204       -0.7710534936        0.0057601042
 C         -2.4693576744        0.4886510910        0.0072908652
 C         -0.9795433498        0.2567053784        0.0042901474
 C         -0.3994198522       -0.9812946041        0.2329924677
 C          0.9769587720       -1.1359632569        0.2277200716
 C          1.8043924598       -0.0476558184       -0.0052747358
 C          1.2352151681        1.2013506260       -0.2334105870
 C         -0.1362011383        1.3411260260       -0.2275276243
 O          3.1633341524       -0.1548309022       -0.0204472099
 H         -4.3776369886       -0.5004186058       -0.0687541369
 H         -3.1896711830       -1.3385516284        0.9232408594
 H         -3.0762740868       -1.4055593629       -0.8415551132
 H         -2.7214470627        1.0891147199        0.8877076346
 H         -2.7220241919        1.0910875144       -0.8700677751
 H         -1.0130542360       -1.8484175460        0.4186799384
 H          1.4102094224       -2.1121257462        0.4064425286
 H          1.8841216697        2.0434847666       -0.4141353904
 H         -0.5678765890        2.3156058515       -0.4072994599
 H          3.4180844925       -1.0695710579        0.1492157964
  19
  -26.2867063300000       7.707414513795537E-003 !mtd4
 C         -3.3199639610       -0.7404542217        0.2987680025
 C         -2.4735754226        0.4316328982       -0.1818655927
 C         -0.9817815439        0.2290613841       -0.0959592532
 C         -0.3898617537       -1.0033055547        0.1468286861
 C          0.9846094240       -1.1381713233        0.2042308987
 C          1.8044611431       -0.0329267834        0.0159908912
 C          1.2257922440        1.2060277662       -0.2295742166
 C         -0.1491531653        1.3273010310       -0.2825956259
 O          3.1554562474       -0.2045841560        0.0803489588
 H         -3.1786581481       -1.6115906372       -0.3363600498
 H         -4.3733314089       -0.4695728432        0.2688345704
 H         -3.0640794711       -1.0054685771        1.3222107606
 H         -2.7316036672        1.3194453277        0.4029125999
 H         -2.7306051857        0.6522006677       -1.2234204309
 H         -0.9986388782       -1.8806204367        0.2960601446
 H          1.4416314845       -2.0963710902        0.3945127488
 H          1.8542823105        2.0751423698       -0.3774162678
 H         -0.5857997015        2.2976813880       -0.4734205397
 H          3.5964523769        0.6399501138       -0.0695824245
