! wb97x-v def2-tzvp def2/J RIJCOSX DEFGRID2 scfconv7 GCP(DFT/TZ) printgap
%output
    printlevel normal
end
%cpcm
    smd true
    smdsolvent "water"
end
* xyz 0 1
C 2.505118980487559 -0.4200525730580023 -0.6164633543774052
C 1.6228491621060663 -0.4615484498001106 0.6289111580271912
C 0.6577686806059343 0.7200096033983122 0.7345193332985309
C -0.312955415430244 0.88421623367084 -0.4283848786905845
S -1.449713251869977 -0.5566119834859125 -0.6899022744706634
H 3.2588507892211713 -1.2131538125996773 -0.5884614094817977
H 3.030414317651639 0.5391046280716856 -0.6943305659869236
H 1.9217056438015954 -0.5561470199606888 -1.5331639070427014
H 2.256684926269211 -0.46318967485274554 1.5236127351757267
H 1.055092664116293 -1.3993700023755924 0.6468599751938336
H 1.2382322445697111 1.652093803560082 0.7945497448270938
H 0.08607840895452555 0.6469704327181373 1.6681138724905495
H -0.9261767663632264 1.77867545569055 -0.2922642484613336
H 0.21637388532311683 0.9931047701928493 -1.380037712681921
H -2.019115855195203 -0.5161977067306248 0.5300479901047879
*
