! pbe def2-sv(p) def2/J RI DEFGRID1 loosescf d4 GCP(DFT/SV(P)) printgap
%output
    printlevel normal
end
* xyz 0 1
C 2.2754828128 -0.9907474117 0.3281880808
C 1.6154355445 0.0597967033 -0.55951608
C 0.4290491376 0.7601973767 0.1141014201
C -0.946076696 0.2378500143 -0.3158544235
H -1.0158756695 0.2968468267 -1.4159961576
C -1.2059204118 -1.2008855119 0.1223598313
O -1.8989314336 1.1285898848 0.24974375
H 3.1010140762 -1.4632002853 -0.1992871791
H 1.5689500951 -1.7618766519 0.6205673789
H 2.6674632751 -0.527269227 1.230550945
H 2.3671819653 0.8071771441 -0.8189770424
H 1.2842011989 -0.4021348252 -1.4918057114
H 0.5037189396 0.6727626654 1.1990871488
H 0.4383010568 1.8257198986 -0.123437823
H -1.1078368354 -1.2835208895 1.2021907992
H -2.2107922016 -1.5071520048 -0.1619787708
H -0.4982822521 -1.8701070422 -0.3559063414
H -2.7898074564 0.8087228652 0.0533813198
*
