! pbe def2-sv(p) def2/J RI DEFGRID1 loosescf d4 GCP(DFT/SV(P)) printgap
%output
    printlevel normal
end
* xyz 0 1
C -2.997403377 0.7530003306 0.1903493835
C -1.802977073 -0.1801019547 0.3685103387
C -2.0203896667 -1.4960447276 -0.3739586965
C -0.5342819382 0.5085257349 -0.1296674925
O 0.5978154933 -0.2992157319 0.2182347966
C 1.8043365727 0.1840800257 -0.0483014388
O 1.983271524 1.2601701507 -0.5828477688
C 2.8905527081 -0.7441121294 0.4044109992
H -3.1290717617 1.0011188798 -0.8600789802
H -2.8540289912 1.6755418503 0.7469072869
H -3.9025224465 0.2703777283 0.5474338544
H -1.6656373303 -0.3935823227 1.4330033719
H -2.8874038795 -2.0147804194 0.0254339541
H -1.1497349949 -2.1370570223 -0.2649671416
H -2.1850333027 -1.3093141379 -1.4327865753
H -0.5518836831 0.6368468315 -1.2173928717
H -0.4088827743 1.497015407 0.3253320216
H 3.1973714862 -0.4483291503 1.4055518316
H 3.7458686919 -0.6544502769 -0.2577690641
H 2.5195743797 -1.7627764955 0.4352802145
*
