! r2scan-3c def2/J RI DEFGRID2 scfconv6 printgap
%output
    printlevel normal
end
%cpcm
    smd true
    smdsolvent "water"
end
* xyz 0 1
C 0.1528511088 -0.2845293641 -0.3706021124
H -0.0498274918 -0.3363515949 -1.4482484118
C 1.5171216886 0.3761767603 -0.1350399669
F 2.4918369424 -0.2812669894 -0.7670060782
F 1.8428284353 0.4286630543 1.1537013323
F 1.5285922031 1.6281905504 -0.599530858
O -0.776213674 0.4720698055 0.3245236351
C -2.0933498306 0.1557340848 0.1105550161
F -2.4554597701 0.4763295943 -1.1575748414
F -2.8190798412 0.9257872043 0.9222759473
Cl 0.2462927233 -1.9644411132 0.2607490585
H -2.3436418357 -0.9039514864 0.2801451248
*
