! r2scan-3c def2/J RI DEFGRID2 scfconv6 printgap
%output
    printlevel normal
end
* xyz 0 1
C -2.4989999063 0.1016772158 0.1618275174
C -1.1584584124 -0.3944888476 -0.3665011922
C 0.0032421815 0.4011746671 0.2348100063
C 1.3196271423 0.0062292532 -0.3378519984
O 2.3490968981 -0.1186588896 0.2819294003
H -2.540730646 0.0095958727 1.2442351631
H -2.6512295328 1.1455565713 -0.1008217388
H -3.310760195 -0.4822907937 -0.2633405555
H -1.1362332439 -0.3007390754 -1.4536336716
H -1.037142321 -1.4503681108 -0.1181361689
H -0.1318984139 1.4599216889 -0.0082554976
H 0.0309627755 0.3054835408 1.32126366
H 1.3082005818 -0.1691392556 -1.4297029807
*
