! r2scan-3c def2/J RI DEFGRID2 scfconv6 printgap
%output
    printlevel normal
end
* xyz 0 1
C -1.6354907642 0.0788154608 1.5415802325
C -1.3152187786 -0.4656201342 0.1506338546
C -2.5293440104 -0.2535843069 -0.7572883467
C -0.0420512084 0.1215759577 -0.5056859551
C 0.0531342739 1.6388172582 -0.3578665681
C 1.2582097574 -0.6011782305 -0.0744052456
C 2.2742702741 -0.5883823914 -1.2194475503
C 1.9252808577 -0.0407954523 1.1810849828
H -1.8788907573 1.1367354866 1.4982085914
H -2.4967961594 -0.4482267777 1.9473775974
H -0.8055004005 -0.0627275253 2.2266220236
H -1.1621957639 -1.547967893 0.2420718524
H -2.3653621346 -0.7017766575 -1.7347394424
H -2.7297339797 0.806322989 -0.8936547725
H -3.4127420814 -0.7105004155 -0.3170412776
H -0.1490010637 -0.0881895201 -1.5772820826
H 0.9098428697 2.0156858085 -0.9113711393
H 0.1583783523 1.9333260011 0.6812492857
H -0.8378722298 2.1125366104 -0.7624971106
H 1.0001440687 -1.6486495698 0.1230189965
H 1.8670439471 -1.0715638234 -2.1047612679
H 2.5477355386 0.4315575808 -1.4791598504
H 3.178682824 -1.1176831202 -0.9281047083
H 2.7656212871 -0.6747433629 1.4573427174
H 1.2394458127 -0.0108598101 2.0217626343
H 2.3047830508 0.9617710597 1.0042514262
*
