! pbe def2-sv(p) def2/J RI DEFGRID1 loosescf d4 GCP(DFT/SV(P)) printgap
%output
    printlevel normal
end
* xyz 0 1
C 0.9738849811 -1.2014554558 0.5942977465
C 0.9316468559 0.2944637189 0.2917317708
C 2.2565126776 0.7441391289 -0.3235195492
C -0.2284341776 0.6507980576 -0.646053522
C -1.616459284 0.5093633555 -0.0137436114
O -2.0631433755 -0.8220843157 0.1386508113
H 1.7663148656 -1.4209065371 1.3062183159
H 1.1663507761 -1.7654823402 -0.3161630964
H 0.0290600403 -1.5328801311 1.0160178495
H 0.7853088274 0.8352858322 1.2337843391
H 2.4212472879 0.243287326 -1.2750959219
H 3.0831993383 0.5005057151 0.3392089431
H 2.2584755755 1.8181067532 -0.4945487265
H -0.1734583091 0.027401977 -1.5416075608
H -0.118920992 1.691734794 -0.9561751338
H -1.6125790716 0.9284425251 0.9957014055
H -2.3452384522 1.0721554729 -0.6139447118
H -2.1225887138 -1.2326749567 -0.7349808278
*
