  34
        -65.42658993
 C          4.0423707760        0.4108531436        1.7480550734
 C          3.8136697002        1.6566877909        0.9130167471
 O          2.4620455674        1.7845270767        0.4784234462
 P          1.7527437207        0.7872890810       -0.5091263718
 O          0.5818551212        1.3138632773       -1.1970163873
 O          2.9596570957        0.3365597990       -1.4660072946
 C          2.6323036613       -0.0759897321       -2.7865305280
 C          1.9400066370       -1.4277317321       -2.8047358053
 O          1.5225989470       -0.5638175185        0.3748888855
 C          0.3597456543       -1.2847215911        0.4177815618
 C          0.4872397582       -2.5842522017        0.7015215684
 Cl        -0.8430680828       -3.6372629416        0.9268668652
 C         -0.9211948979       -0.6025560240        0.1813917144
 C         -1.8495952247       -1.1342271100       -0.7108117486
 C         -3.0525521164       -0.5023294621       -0.9551546543
 C         -3.3382819258        0.6860681835       -0.3002355041
 C         -2.4339362709        1.2438699773        0.5884698037
 C         -1.2322229987        0.5982315083        0.8215080267
 Cl        -0.1166862303        1.3027308174        1.9121410932
 Cl        -4.8319165593        1.4863506550       -0.5944538588
 H          3.8910220863       -0.4745349905        1.1368373171
 H          5.0585944226        0.4115562583        2.1341511657
 H          3.3438045232        0.3846610774        2.5807138527
 H          4.4708170570        1.6538370203        0.0393296954
 H          3.9929367159        2.5614940354        1.5007561956
 H          1.9836343601        0.6783366335       -3.2415492086
 H          3.5868593201       -0.1122778353       -3.3183732445
 H          2.5343793194       -2.1648151023       -2.2696246627
 H          0.9660534794       -1.3437665341       -2.3268390682
 H          1.8024172053       -1.7566662686       -3.8313260946
 H          1.4532246384       -3.0348370804        0.8615560268
 H         -1.6145456061       -2.0481279171       -1.2338570738
 H         -3.7596335491       -0.9208466603       -1.6531435514
 H         -2.6540069012        2.1727530893        1.0891781881
