! pbe def2-sv(p) def2/J RI DEFGRID1 loosescf d4 GCP(DFT/SV(P)) printgap
%output
    printlevel normal
end
* xyz 0 1
C -4.1532628722 1.3780164499 -0.3882619557
C -3.4804537282 0.1836903248 0.2649637348
O -2.0592773819 0.3842744365 0.2471265619
C -1.2677135676 -0.6675617942 0.0401998691
O -1.6964071211 -1.7997285725 -0.1200076845
C 0.160332871 -0.317906085 0.0237254069
C 0.6008326429 0.9918596422 0.2141595569
C 1.9479582651 1.2818415372 0.1937441372
C 2.882652241 0.2676966146 -0.0180222857
C 2.443630799 -1.0448828008 -0.2097281406
C 1.0987046232 -1.3308589217 -0.188108519
O 4.2084071787 0.5000604738 -0.0466797839
H -3.8402437124 1.4654975178 -1.4249901397
H -5.2296352033 1.2464534902 -0.3503059115
H -3.8842721075 2.2890290835 0.1380260876
H -3.7070520265 -0.7499516876 -0.2601801458
H -3.7844627784 0.0828718895 1.31159377
H -0.1223144765 1.7741433528 0.378281338
H 2.2799151043 2.2983048124 0.342569926
H 3.1784301023 -1.8165919394 -0.3722447711
H 0.7430543899 -2.3393905947 -0.3337818137
H 4.4072335882 1.4395327861 0.0964823331
*
