! pbe def2-sv(p) def2/J RI DEFGRID1 loosescf d4 GCP(DFT/SV(P)) printgap
%output
    printlevel normal
end
* xyz 0 1
C -2.5272868711 0.1058945267 0.3134784736
C -1.2635658513 0.6802656663 -0.315629658
C -0.0011436426 -0.0180328696 0.19941226
C 1.2652753332 0.6882911674 -0.3064423698
C 2.5451933896 0.138215136 0.3156387097
O -0.0625305309 -1.3667049854 -0.2354941769
H -3.4093440399 0.5818153841 -0.1063757822
H -2.5804517001 -0.9627581819 0.1221854301
H -2.5236186404 0.2660077833 1.3894020336
H -1.3031474868 0.549167214 -1.3982004901
H -1.1913526869 1.746289376 -0.0972504222
H -0.0078606243 0.0076136582 1.3020691293
H 1.3071084528 0.5836509088 -1.3923545681
H 1.1783136079 1.7496108621 -0.0702166985
H 2.4925993822 0.1869168872 1.4014264076
H 2.7155693181 -0.8939667395 0.018791302
H 3.3992590731 0.7247111214 -0.0127211127
H 0.6954022624 -1.8470102024 0.1211547983
*
