  22
  -55.8149192700000        1.00000000000000      !mtd8
 C          0.9473978982        1.6133076170       -1.7637358716
 C          2.0481553093        1.7529235826       -1.0417886892
 C          2.4277150606        0.4981351380       -0.3260413807
 H          2.6249031481        0.6360074837        0.7373501976
 C          1.2751513753       -0.4729498754       -0.6137397647
 H          1.6464991002       -1.4227691810       -0.9971179618
 C          0.3392109287        0.2538570561       -1.6134038769
 H          0.2288593209       -0.2619050913       -2.5682027642
 C         -1.0285147905        0.2620478064       -0.8689369765
 C         -0.8744410904        1.1968703814        0.3141447045
 C         -0.0500821954        0.5979777391        1.1846219754
 C          0.3403838665       -0.7423601844        0.5923253201
 C         -0.9783631639       -1.0986595130       -0.1368674213
 Cl        -2.3370100361       -1.3504390652        0.9641474531
 Cl        -0.8598699352       -2.4861423099       -1.2108558673
 Cl         0.9439976644       -1.9217311996        1.7381571370
 Cl         0.5513546386        1.1818477734        2.6530998078
 Cl        -1.5643058842        2.7354678205        0.3839313452
 Cl        -2.4223338702        0.5516300746       -1.8857946813
 Cl         3.9639907460       -0.1308346052       -1.0187417190
 H          0.4896976656        2.3629412039       -2.3829112317
 H          2.6685035015        2.6287105667       -0.9857613845
