  22
        -54.08851549
 C          5.1501621967        0.6912784223        0.0001749273
 C          5.1501566244       -0.6912804500       -0.0000679151
 C          3.9518175594       -1.3883096786       -0.0002002061
 C          2.7535057058       -0.6966477112       -0.0001013253
 C          2.7535097367        0.6966720233        0.0000746641
 C          3.9518260412        1.3883239046        0.0002380078
 O          1.5807757982        1.4250013546        0.0000679819
 C          0.4288417047        0.6991461371       -0.0000050246
 C          0.4288430824       -0.6991261630       -0.0000550781
 C         -0.7794726766       -1.3888862830       -0.0000023316
 C         -1.9906963820       -0.6952560484        0.0000263445
 C         -1.9907024401        0.6952458202       -0.0000189145
 C         -0.7794870696        1.3888937100       -0.0000208723
 Cl        -0.7527137731        3.1022304642       -0.0000594712
 Cl        -3.4684052380        1.5589833669       -0.0000535287
 Cl        -3.4683817799       -1.5590203213        0.0001103187
 Cl        -0.7526681270       -3.1022219086        0.0000240477
 O          1.5807828047       -1.4249780592       -0.0001588807
 H          6.0809935089        1.2358937442        0.0003147234
 H          6.0809838221       -1.2359130589       -0.0001616753
 H          3.9240594971       -2.4657480973       -0.0003744370
 H          3.9240967192        2.4657568176        0.0004089482
