! r2scan-3c def2/J RI DEFGRID2 scfconv6 printgap
%output
    printlevel normal
end
* xyz 0 1
C -2.3600655411 0.2686926672 1.0708892076
C -1.8055247686 0.5863592303 -0.3210419648
C -0.5320256509 -0.1878129669 -0.5400761457
O -0.4494010718 -1.2338164293 -1.1524577882
O 0.5032345545 0.3923903171 0.0475540654
C 1.7790024883 -0.2650820178 -0.0348016328
C 2.7525747932 0.4738461771 0.8626838097
H -3.2895909467 0.8078924916 1.2260442956
H -2.5537837172 -0.7971645373 1.165939559
H -1.6479062594 0.5658285948 1.8360016549
H -1.5861407127 1.6505478461 -0.3955937327
H -2.5219709997 0.2944854218 -1.0878603211
H 1.6516090194 -1.3089739773 0.2702574619
H 2.1035721143 -0.2533653543 -1.0804702434
H 2.832995238 1.5101213414 0.5483309163
H 2.4075679323 0.445676285 1.8920066179
H 3.727755041 0.0025427462 0.7990149382
*
