! r2scan-3c def2/J RI DEFGRID2 scfconv6 printgap
%output
    printlevel normal
end
%cpcm
    smd true
    smdsolvent "water"
end
* xyz 0 1
C -1.9601403732 -0.4557090077 -0.7274157101
C -1.5192909355 0.5901484231 0.2889570393
C -0.2348741733 0.1877639192 1.0249768876
C 0.9442822211 0.050988133 0.0942287981
C 1.4949241826 1.1055187849 -0.4867463132
C 1.4522166928 -1.3406461935 -0.1259401481
H -2.8959298537 -0.1585730763 -1.1950678748
H -2.1094730085 -1.4190970445 -0.2443797114
H -1.2094686415 -0.5681332875 -1.5060789397
H -1.3565315536 1.5413510007 -0.2210842453
H -2.3130381088 0.73609909 1.0250037643
H -0.0153300637 0.9510877377 1.7751406837
H -0.4042088305 -0.7571054936 1.5437211698
H 2.3292776941 1.0154380044 -1.1617566846
H 1.1337198862 2.1051085697 -0.3107925897
H 1.8232614595 -1.7504525821 0.8131082496
H 0.6486819767 -1.9873277985 -0.4741745884
H 2.2583537912 -1.3536847432 -0.8547071063
*
