  8
  -7.33637067000000       0.333333333333333      !mtd4
 C         -0.7606908843       -0.0000054874        0.0000019620
 C          0.7606964825        0.0000036763       -0.0000039586
 H         -1.1436320195        0.6382112455        0.7932737656
 H         -1.1436639001        0.3679506869       -0.9493312768
 H         -1.1435780860       -1.0061683936        0.1560586970
 H          1.1436100243       -0.3684887606        0.9491492909
 H          1.1435667990        1.0062593423       -0.1554106658
 H          1.1436304691       -0.6377425371       -0.7937160177
  8
  -7.33637067000000       0.333333333333333      !mtd12
 C         -0.7607242910       -0.0000008879        0.0000096033
 C          0.7607282752        0.0000082762        0.0000036825
 H         -1.1437099898        0.7054871769       -0.7340164950
 H         -1.1437491721       -0.9884707506       -0.2439085927
 H         -1.1435981349        0.2829667629        0.9780101098
 H          1.1436994889       -0.7056935095        0.7337970556
 H          1.1438214162        0.9883749937        0.2440999887
 H          1.1434889126       -0.2827527179       -0.9781403911
  8
  -7.33637067000000       0.333333333333333      !mtd2
 C         -0.7607216741       -0.0000055355        0.0000004159
 C          0.7607217005        0.0000036286       -0.0000055048
 H         -1.1436280889        0.9006298530        0.4747905398
 H         -1.1435473149       -0.0391795356       -1.0173838143
 H         -1.1436106751       -0.8614898876        0.5425670295
 H          1.1436189221        0.8615589466       -0.5425359504
 H          1.1436506476       -0.9006202584       -0.4747487121
 H          1.1435161947        0.0391236061        1.0173715516
